ace_1o86_crystal_ligand
  PyMOL3.1          3D                             0

 29 30  0  0  0  0  0  0  0  0999 V2000
   41.5020   34.0520   44.8400 C   0  0  0  0  0  0  0  0  0  0  0  0
   41.8970   34.0630   47.2660 N   0  0  0  0  0  0  0  0  0  0  0  0
   40.2910   33.7430   45.1200 O   0  0  0  0  0  0  0  0  0  0  0  0
   42.6120   33.8520   45.9430 C   0  0  0  0  0  0  0  0  0  0  0  0
   41.8100   34.5330   43.5990 N   0  0  0  0  0  0  0  0  0  0  0  0
   43.3690   36.2010   48.2690 O   0  0  0  0  0  0  0  0  0  0  0  0
   42.2590   36.2670   47.6540 C   0  0  0  0  0  0  0  0  0  0  0  0
   43.3290   27.7740   44.0870 N   0  0  0  0  0  0  0  0  0  0  0  0
   41.9390   37.2830   47.0690 O   0  0  0  0  0  0  0  0  0  0  0  0
   41.3150   35.0650   47.6820 C   0  0  0  0  0  0  0  0  0  0  0  0
   38.8430   33.3680   41.8670 O   0  0  0  0  0  0  0  0  0  0  0  0
   40.7150   34.6850   42.5590 C   0  0  0  0  0  0  0  0  0  0  0  0
   40.7030   32.2720   42.3260 O   0  0  0  0  0  0  0  0  0  0  0  0
   41.5050   35.2370   41.3530 C   0  0  0  0  0  0  0  0  0  0  0  0
   42.8260   35.3690   41.6800 C   0  0  0  0  0  0  0  0  0  0  0  0
   43.1380   34.9560   43.0620 C   0  0  0  0  0  0  0  0  0  0  0  0
   40.0810   33.2840   42.2240 C   0  0  0  0  0  0  0  0  0  0  0  0
   43.2520   32.4730   45.7840 C   0  0  0  0  0  0  0  0  0  0  0  0
   42.4840   31.2480   45.5360 C   0  0  0  0  0  0  0  0  0  0  0  0
   43.2960   30.0620   44.8420 C   0  0  0  0  0  0  0  0  0  0  0  0
   42.4870   28.8950   44.6290 C   0  0  0  0  0  0  0  0  0  0  0  0
   40.5860   35.3650   48.9320 C   0  0  0  0  0  0  0  0  0  0  0  0
   39.4080   36.2990   49.1630 C   0  0  0  0  0  0  0  0  0  0  0  0
   38.8470   36.4010   50.5490 C   0  0  0  0  0  0  0  0  0  0  0  0
   38.5660   35.2060   51.3310 C   0  0  0  0  0  0  0  0  0  0  0  0
   38.0160   35.3190   52.6560 C   0  0  0  0  0  0  0  0  0  0  0  0
   37.7370   36.6270   53.2180 C   0  0  0  0  0  0  0  0  0  0  0  0
   38.0140   37.8220   52.4430 C   0  0  0  0  0  0  0  0  0  0  0  0
   38.5680   37.7100   51.1120 C   0  0  0  0  0  0  0  0  0  0  0  0
  1  3  2  0  0  0  0
  1  4  1  0  0  0  0
  1  5  1  0  0  0  0
  2  4  1  0  0  0  0
  4 18  1  0  0  0  0
  5 12  1  0  0  0  0
  5 16  1  0  0  0  0
  6  7  1  0  0  0  0
  7 10  1  0  0  0  0
  8 21  1  0  0  0  0
  7  9  1  0  0  0  0
  2 10  1  0  0  0  0
 10 22  1  0  0  0  0
 11 17  4  0  0  0  0
 12 14  1  0  0  0  0
 12 17  1  0  0  0  0
 13 17  4  0  0  0  0
 14 15  1  0  0  0  0
 15 16  1  0  0  0  0
 18 19  1  0  0  0  0
 19 20  1  0  0  0  0
 20 21  1  0  0  0  0
 22 23  1  0  0  0  0
 23 24  1  0  0  0  0
 24 25  4  0  0  0  0
 24 29  4  0  0  0  0
 25 26  4  0  0  0  0
 26 27  4  0  0  0  0
 27 28  4  0  0  0  0
 28 29  4  0  0  0  0
M  END
$$$$
