alox5_6n2w_crystal_ligand
  PyMOL3.1          3D                             0

 44 45  0  0  0  0  0  0  0  0999 V2000
   35.3230   63.1770   33.6960 C   0  0  0  0  0  0  0  0  0  0  0  0
   35.8540   63.5350   34.9180 C   0  0  0  0  0  0  0  0  0  0  0  0
   35.9000   64.8720   35.2820 C   0  0  0  0  0  0  0  0  0  0  0  0
   35.4230   65.8600   34.4380 C   0  0  0  0  0  0  0  0  0  0  0  0
   34.8920   65.4970   33.2180 C   0  0  0  0  0  0  0  0  0  0  0  0
   34.8460   64.1640   32.8560 C   0  0  0  0  0  0  0  0  0  0  0  0
   34.3100   63.8000   31.6260 O   0  0  0  0  0  0  0  0  0  0  0  0
   34.4040   66.4720   32.3430 O   0  0  0  0  0  0  0  0  0  0  0  0
   36.4770   65.2710   36.6360 C   0  0  0  0  0  0  0  0  0  0  0  0
   35.4640   65.1260   37.7840 C   0  0  0  0  0  0  0  0  0  0  0  0
   34.2550   66.0340   37.5210 C   0  0  0  0  0  0  0  0  0  0  0  0
   36.1630   65.4280   39.1270 C   0  0  0  0  0  0  0  0  0  0  0  0
   35.1260   65.5330   40.2530 C   0  0  0  0  0  0  0  0  0  0  0  0
   36.9890   66.7220   39.0450 C   0  0  0  0  0  0  0  0  0  0  0  0
   35.7520   65.8330   41.6150 C   0  0  0  0  0  0  0  0  0  0  0  0
   36.2950   64.8130   42.3770 C   0  0  0  0  0  0  0  0  0  0  0  0
   36.8690   65.1040   43.6120 C   0  0  0  0  0  0  0  0  0  0  0  0
   36.8990   66.4120   44.0620 C   0  0  0  0  0  0  0  0  0  0  0  0
   36.3630   67.4320   43.2970 C   0  0  0  0  0  0  0  0  0  0  0  0
   35.7890   67.1420   42.0730 C   0  0  0  0  0  0  0  0  0  0  0  0
   37.4800   66.6900   45.3030 O   0  0  0  0  0  0  0  0  0  0  0  0
   37.4200   64.0930   44.4150 O   0  0  0  0  0  0  0  0  0  0  0  0
   35.2850   62.2830   33.4420 H   0  0  0  0  0  0  0  0  0  0  0  0
   36.1750   62.8820   35.4970 H   0  0  0  0  0  0  0  0  0  0  0  0
   35.4560   66.7540   34.6910 H   0  0  0  0  0  0  0  0  0  0  0  0
   34.7250   63.1220   31.3260 H   0  0  0  0  0  0  0  0  0  0  0  0
   33.7630   66.1490   31.8870 H   0  0  0  0  0  0  0  0  0  0  0  0
   35.1540   64.2070   37.8020 H   0  0  0  0  0  0  0  0  0  0  0  0
   36.7630   64.6940   39.3310 H   0  0  0  0  0  0  0  0  0  0  0  0
   36.2700   63.9360   42.0690 H   0  0  0  0  0  0  0  0  0  0  0  0
   36.3860   68.3090   43.6070 H   0  0  0  0  0  0  0  0  0  0  0  0
   35.4300   67.8260   41.5540 H   0  0  0  0  0  0  0  0  0  0  0  0
   37.6380   67.5230   45.3620 H   0  0  0  0  0  0  0  0  0  0  0  0
   38.1250   64.3830   44.7920 H   0  0  0  0  0  0  0  0  0  0  0  0
   37.2460   64.7100   36.8260 H   0  0  0  0  0  0  0  0  0  0  0  0
   36.7680   66.1950   36.5920 H   0  0  0  0  0  0  0  0  0  0  0  0
   33.5850   65.8880   38.2080 H   0  0  0  0  0  0  0  0  0  0  0  0
   34.5380   66.9620   37.5380 H   0  0  0  0  0  0  0  0  0  0  0  0
   33.8770   65.8280   36.6520 H   0  0  0  0  0  0  0  0  0  0  0  0
   34.4990   66.2400   40.0360 H   0  0  0  0  0  0  0  0  0  0  0  0
   34.6420   64.6940   40.3110 H   0  0  0  0  0  0  0  0  0  0  0  0
   37.3590   66.9250   39.9190 H   0  0  0  0  0  0  0  0  0  0  0  0
   37.7110   66.6050   38.4080 H   0  0  0  0  0  0  0  0  0  0  0  0
   36.4190   67.4520   38.7570 H   0  0  0  0  0  0  0  0  0  0  0  0
  1 23  1  0  0  0  0
  1  2  4  0  0  0  0
  2 24  1  0  0  0  0
  2  3  4  0  0  0  0
  3  4  4  0  0  0  0
  4  5  4  0  0  0  0
  4 25  1  0  0  0  0
  5  6  4  0  0  0  0
  5  8  1  0  0  0  0
  1  6  4  0  0  0  0
  6  7  1  0  0  0  0
  7 26  1  0  0  0  0
  8 27  1  0  0  0  0
  3  9  1  0  0  0  0
  9 35  1  0  0  0  0
  9 36  1  0  0  0  0
  9 10  1  0  0  0  0
 10 11  1  0  0  0  0
 10 28  1  0  0  0  0
 11 37  1  0  0  0  0
 11 38  1  0  0  0  0
 11 39  1  0  0  0  0
 10 12  1  0  0  0  0
 12 14  1  0  0  0  0
 12 29  1  0  0  0  0
 12 13  1  0  0  0  0
 13 40  1  0  0  0  0
 13 41  1  0  0  0  0
 14 42  1  0  0  0  0
 14 43  1  0  0  0  0
 14 44  1  0  0  0  0
 13 15  1  0  0  0  0
 15 16  4  0  0  0  0
 16 30  1  0  0  0  0
 16 17  4  0  0  0  0
 17 18  4  0  0  0  0
 18 19  4  0  0  0  0
 18 21  1  0  0  0  0
 19 20  4  0  0  0  0
 19 31  1  0  0  0  0
 15 20  4  0  0  0  0
 20 32  1  0  0  0  0
 21 33  1  0  0  0  0
 17 22  1  0  0  0  0
 22 34  1  0  0  0  0
M  END
$$$$
