alox5_6ncf_crystal_ligand
  PyMOL3.1          3D                             0

 84 88  0  0  0  0  0  0  0  0999 V2000
   16.8420  -23.3300  -19.2700 O   0  0  0  0  0  0  0  0  0  0  0  0
   11.4120  -21.8710  -16.0950 O   0  0  0  0  0  0  0  0  0  0  0  0
   14.3020  -20.0320  -21.6380 O   0  5  0  0  0  0  0  0  0  0  0  0
   15.2920  -19.5210  -19.7150 O   0  0  0  0  0  0  0  0  0  0  0  0
   18.9910  -22.6490  -18.9300 O   0  0  0  0  0  0  0  0  0  0  0  0
   10.3640  -22.2160  -19.5570 C   0  0  0  0  0  0  0  0  0  0  0  0
    8.8700  -22.7410  -19.3220 C   0  0  0  0  0  0  0  0  0  0  0  0
   12.8600  -22.2590  -18.5860 C   0  0  0  0  0  0  0  0  0  0  0  0
   11.3270  -22.7070  -18.3820 C   0  0  0  0  0  0  0  0  0  0  0  0
   13.4330  -22.5850  -19.9960 C   0  0  0  0  0  0  0  0  0  0  0  0
   10.9860  -22.7170  -20.8860 C   0  0  0  0  0  0  0  0  0  0  0  0
    6.7160  -21.9370  -17.6310 C   0  0  0  0  0  0  0  0  0  0  0  0
    8.2790  -22.2950  -17.8970 C   0  0  0  0  0  0  0  0  0  0  0  0
    5.9620  -21.6990  -19.0030 C   0  0  0  0  0  0  0  0  0  0  0  0
   12.4100  -22.2170  -21.1050 C   0  0  0  0  0  0  0  0  0  0  0  0
    7.9540  -22.1330  -20.4440 C   0  0  0  0  0  0  0  0  0  0  0  0
   14.9410  -21.9450  -20.2510 C   0  0  0  0  0  0  0  0  0  0  0  0
   13.8440  -22.9420  -17.6200 C   0  0  0  0  0  0  0  0  0  0  0  0
    7.0110  -21.0890  -19.9440 C   0  0  0  0  0  0  0  0  0  0  0  0
   10.6900  -22.2400  -17.0440 C   0  0  0  0  0  0  0  0  0  0  0  0
   10.2460  -20.6810  -19.6660 C   0  0  0  0  0  0  0  0  0  0  0  0
    5.8570  -22.9140  -16.6820 C   0  0  0  0  0  0  0  0  0  0  0  0
   15.9690  -22.1910  -19.0340 C   0  0  0  0  0  0  0  0  0  0  0  0
    8.9180  -24.2610  -19.5560 C   0  0  0  0  0  0  0  0  0  0  0  0
   12.8760  -20.7520  -18.3680 C   0  0  0  0  0  0  0  0  0  0  0  0
    9.1640  -22.2010  -16.8810 C   0  0  0  0  0  0  0  0  0  0  0  0
   15.2550  -22.2610  -17.6190 C   0  0  0  0  0  0  0  0  0  0  0  0
    5.3650  -23.0830  -19.5320 C   0  0  0  0  0  0  0  0  0  0  0  0
    4.3820  -23.0750  -17.1400 C   0  0  0  0  0  0  0  0  0  0  0  0
    4.4170  -23.7680  -18.5570 C   0  0  0  0  0  0  0  0  0  0  0  0
    4.8380  -20.6070  -18.9160 C   0  0  0  0  0  0  0  0  0  0  0  0
   15.5220  -22.5480  -21.5240 C   0  0  0  0  0  0  0  0  0  0  0  0
   14.8360  -20.3670  -20.5480 C   0  0  0  0  0  0  0  0  0  0  0  0
    5.8360  -22.4700  -15.1780 C   0  0  0  0  0  0  0  0  0  0  0  0
    3.5620  -23.7730  -16.0000 C   0  0  0  0  0  0  0  0  0  0  0  0
   18.1330  -23.0680  -19.7000 C   0  0  0  0  0  0  0  0  0  0  0  0
   18.5230  -23.2840  -21.1730 C   0  0  0  0  0  0  0  0  0  0  0  0
   11.2990  -23.6760  -18.3380 H   0  0  0  0  0  0  0  0  0  0  0  0
   13.4800  -23.5510  -20.0660 H   0  0  0  0  0  0  0  0  0  0  0  0
   10.9810  -23.6850  -20.9560 H   0  0  0  0  0  0  0  0  0  0  0  0
   10.3960  -22.4450  -21.6060 H   0  0  0  0  0  0  0  0  0  0  0  0
    6.6770  -21.0910  -17.1580 H   0  0  0  0  0  0  0  0  0  0  0  0
   12.7080  -22.4980  -21.9840 H   0  0  0  0  0  0  0  0  0  0  0  0
   12.3820  -21.2510  -21.1860 H   0  0  0  0  0  0  0  0  0  0  0  0
    8.4680  -21.7970  -21.1950 H   0  0  0  0  0  0  0  0  0  0  0  0
    7.4350  -22.7730  -20.9570 H   0  0  0  0  0  0  0  0  0  0  0  0
   13.9270  -23.8920  -17.7970 H   0  0  0  0  0  0  0  0  0  0  0  0
   13.5040  -22.9470  -16.7120 H   0  0  0  0  0  0  0  0  0  0  0  0
    6.5960  -20.6270  -20.6890 H   0  0  0  0  0  0  0  0  0  0  0  0
    7.5340  -20.4060  -19.4960 H   0  0  0  0  0  0  0  0  0  0  0  0
    9.5310  -20.3230  -20.2150 H   0  0  0  0  0  0  0  0  0  0  0  0
   10.1410  -20.2510  -18.8030 H   0  0  0  0  0  0  0  0  0  0  0  0
   11.0160  -20.2660  -20.0850 H   0  0  0  0  0  0  0  0  0  0  0  0
    6.2540  -23.7990  -16.7020 H   0  0  0  0  0  0  0  0  0  0  0  0
   16.5320  -21.4010  -19.0570 H   0  0  0  0  0  0  0  0  0  0  0  0
    8.6660  -24.5070  -20.4600 H   0  0  0  0  0  0  0  0  0  0  0  0
    9.7640  -24.7340  -19.5990 H   0  0  0  0  0  0  0  0  0  0  0  0
    8.3290  -24.8080  -19.0130 H   0  0  0  0  0  0  0  0  0  0  0  0
   12.7210  -20.2630  -19.1910 H   0  0  0  0  0  0  0  0  0  0  0  0
   13.6910  -20.3820  -17.9960 H   0  0  0  0  0  0  0  0  0  0  0  0
   12.2160  -20.4110  -17.7440 H   0  0  0  0  0  0  0  0  0  0  0  0
    8.9140  -22.1040  -15.9910 H   0  0  0  0  0  0  0  0  0  0  0  0
   15.1770  -21.3710  -17.2410 H   0  0  0  0  0  0  0  0  0  0  0  0
   15.8070  -22.7260  -16.9710 H   0  0  0  0  0  0  0  0  0  0  0  0
    6.0750  -23.6850  -19.8050 H   0  0  0  0  0  0  0  0  0  0  0  0
    4.8560  -22.9860  -20.3520 H   0  0  0  0  0  0  0  0  0  0  0  0
    3.8570  -22.2660  -17.2390 H   0  0  0  0  0  0  0  0  0  0  0  0
    3.5310  -23.9100  -18.9260 H   0  0  0  0  0  0  0  0  0  0  0  0
    4.6520  -24.7080  -18.6010 H   0  0  0  0  0  0  0  0  0  0  0  0
    4.8780  -20.0230  -18.1430 H   0  0  0  0  0  0  0  0  0  0  0  0
    3.9380  -20.9700  -18.9150 H   0  0  0  0  0  0  0  0  0  0  0  0
    4.8250  -19.9750  -19.6520 H   0  0  0  0  0  0  0  0  0  0  0  0
   14.8830  -22.5790  -22.2520 H   0  0  0  0  0  0  0  0  0  0  0  0
   15.8280  -23.4640  -21.4410 H   0  0  0  0  0  0  0  0  0  0  0  0
   16.2840  -22.0750  -21.8920 H   0  0  0  0  0  0  0  0  0  0  0  0
    5.0780  -21.9230  -14.9200 H   0  0  0  0  0  0  0  0  0  0  0  0
    5.7800  -23.2200  -14.5650 H   0  0  0  0  0  0  0  0  0  0  0  0
    6.6080  -21.9660  -14.8760 H   0  0  0  0  0  0  0  0  0  0  0  0
    3.2760  -23.8700  -15.0790 H   0  0  0  0  0  0  0  0  0  0  0  0
    4.1150  -24.5500  -15.8220 H   0  0  0  0  0  0  0  0  0  0  0  0
    2.6750  -23.4240  -16.1770 H   0  0  0  0  0  0  0  0  0  0  0  0
   19.4830  -23.2590  -21.3100 H   0  0  0  0  0  0  0  0  0  0  0  0
   18.2070  -22.6040  -21.7880 H   0  0  0  0  0  0  0  0  0  0  0  0
   18.2650  -24.1370  -21.5540 H   0  0  0  0  0  0  0  0  0  0  0  0
  6  7  1  0  0  0  0
  6  9  1  0  0  0  0
  6 11  1  0  0  0  0
  7 16  1  0  0  0  0
  8  9  1  0  0  0  0
  8 18  1  0  0  0  0
  8 25  1  0  0  0  0
  9 38  1  0  0  0  0
  8 10  1  0  0  0  0
 10 15  1  0  0  0  0
 10 17  1  0  0  0  0
 10 39  1  0  0  0  0
 11 40  1  0  0  0  0
 11 41  1  0  0  0  0
 12 42  1  0  0  0  0
  7 13  1  0  0  0  0
 12 13  1  0  0  0  0
 13 26  1  0  0  0  0
 12 14  1  0  0  0  0
 14 19  1  0  0  0  0
 14 31  1  0  0  0  0
 11 15  1  0  0  0  0
 15 43  1  0  0  0  0
 15 44  1  0  0  0  0
 16 19  1  0  0  0  0
 16 45  1  0  0  0  0
 16 46  1  0  0  0  0
 17 23  1  0  0  0  0
 17 32  1  0  0  0  0
 17 33  1  0  0  0  0
 18 27  1  0  0  0  0
 18 47  1  0  0  0  0
 18 48  1  0  0  0  0
 19 49  1  0  0  0  0
 19 50  1  0  0  0  0
  2 20  1  0  0  0  0
  9 20  1  0  0  0  0
 20 26  1  0  0  0  0
  6 21  1  0  0  0  0
 21 51  1  0  0  0  0
 21 52  1  0  0  0  0
 21 53  1  0  0  0  0
 12 22  1  0  0  0  0
 22 29  1  0  0  0  0
 22 34  1  0  0  0  0
 22 54  1  0  0  0  0
  1 23  1  0  0  0  0
 23 27  1  0  0  0  0
 23 55  1  0  0  0  0
  7 24  1  0  0  0  0
 24 56  1  0  0  0  0
 24 57  1  0  0  0  0
 24 58  1  0  0  0  0
 25 59  1  0  0  0  0
 25 60  1  0  0  0  0
 25 61  1  0  0  0  0
 26 62  1  0  0  0  0
 27 63  1  0  0  0  0
 27 64  1  0  0  0  0
 14 28  1  0  0  0  0
 28 30  1  0  0  0  0
 28 65  1  0  0  0  0
 28 66  1  0  0  0  0
 29 67  1  0  0  0  0
 29 30  1  0  0  0  0
 30 68  1  0  0  0  0
 30 69  1  0  0  0  0
 31 70  1  0  0  0  0
 31 71  1  0  0  0  0
 31 72  1  0  0  0  0
 32 73  1  0  0  0  0
 32 74  1  0  0  0  0
 32 75  1  0  0  0  0
  3 33  4  0  0  0  0
  4 33  4  0  0  0  0
 34 76  1  0  0  0  0
 34 77  1  0  0  0  0
 34 78  1  0  0  0  0
 29 35  1  0  0  0  0
 35 79  1  0  0  0  0
 35 80  1  0  0  0  0
 35 81  1  0  0  0  0
  1 36  1  0  0  0  0
  5 36  2  0  0  0  0
 36 37  1  0  0  0  0
 37 82  1  0  0  0  0
 37 83  1  0  0  0  0
 37 84  1  0  0  0  0
M  END
$$$$
