egfr_1xkk_crystal_ligand
  PyMOL3.1          3D                             0

 40 44  0  0  0  0  0  0  0  0999 V2000
   14.7840   32.5140   44.1280 Cl  0  0  0  0  0  0  0  0  0  0  0  0
   22.6040   34.4870   31.1410 C   0  0  0  0  0  0  0  0  0  0  0  0
   24.0360   33.4650   31.3500 S   0  0  0  0  0  0  0  0  0  0  0  0
   25.0530   34.2040   32.0670 O   0  0  0  0  0  0  0  0  0  0  0  0
   24.5430   33.0770   30.0530 O   0  0  0  0  0  0  0  0  0  0  0  0
   23.5870   31.9800   32.2910 C   0  0  0  0  0  0  0  0  0  0  0  0
   22.0610   31.8360   32.3240 C   0  0  0  0  0  0  0  0  0  0  0  0
   21.5690   32.1840   33.6650 N   0  0  0  0  0  0  0  0  0  0  0  0
   20.9140   31.0190   34.2650 C   0  0  0  0  0  0  0  0  0  0  0  0
   19.4160   31.2080   34.2230 C   0  0  0  0  0  0  0  0  0  0  0  0
   18.6740   30.9770   33.1210 C   0  0  0  0  0  0  0  0  0  0  0  0
   17.4450   31.2370   33.4210 C   0  0  0  0  0  0  0  0  0  0  0  0
   17.4090   31.6450   34.7310 C   0  0  0  0  0  0  0  0  0  0  0  0
   18.6550   31.6530   35.3630 O   0  0  0  0  0  0  0  0  0  0  0  0
   16.1760   32.0580   35.4070 C   0  0  0  0  0  0  0  0  0  0  0  0
   14.9580   31.9860   34.7350 C   0  0  0  0  0  0  0  0  0  0  0  0
   13.8070   32.4020   35.3590 C   0  0  0  0  0  0  0  0  0  0  0  0
   13.8490   32.8900   36.6640 C   0  0  0  0  0  0  0  0  0  0  0  0
   12.6830   33.3050   37.2760 N   0  0  0  0  0  0  0  0  0  0  0  0
   12.7080   33.7900   38.5680 C   0  0  0  0  0  0  0  0  0  0  0  0
   13.8990   33.8630   39.2600 N   0  0  0  0  0  0  0  0  0  0  0  0
   15.0770   33.4520   38.6680 C   0  0  0  0  0  0  0  0  0  0  0  0
   16.2820   33.5270   39.3660 N   0  0  0  0  0  0  0  0  0  0  0  0
   16.3320   33.8430   40.7350 C   0  0  0  0  0  0  0  0  0  0  0  0
   17.1180   34.9090   41.1780 C   0  0  0  0  0  0  0  0  0  0  0  0
   17.1640   35.2150   42.5350 C   0  0  0  0  0  0  0  0  0  0  0  0
   16.4280   34.4570   43.4380 C   0  0  0  0  0  0  0  0  0  0  0  0
   16.4460   34.7470   44.8280 O   0  0  0  0  0  0  0  0  0  0  0  0
   17.0650   36.0020   45.1430 C   0  0  0  0  0  0  0  0  0  0  0  0
   16.0850   37.1810   44.9840 C   0  0  0  0  0  0  0  0  0  0  0  0
   16.5190   38.4620   45.2460 C   0  0  0  0  0  0  0  0  0  0  0  0
   15.6530   39.5270   45.1020 C   0  0  0  0  0  0  0  0  0  0  0  0
   14.3540   39.3120   44.6930 C   0  0  0  0  0  0  0  0  0  0  0  0
   13.9160   38.0360   44.4290 C   0  0  0  0  0  0  0  0  0  0  0  0
   14.7720   36.9660   44.5730 C   0  0  0  0  0  0  0  0  0  0  0  0
   15.6650   33.4150   42.9990 C   0  0  0  0  0  0  0  0  0  0  0  0
   15.6070   33.0980   41.6600 C   0  0  0  0  0  0  0  0  0  0  0  0
   15.0530   32.9590   37.3490 C   0  0  0  0  0  0  0  0  0  0  0  0
   16.2200   32.5450   36.7310 C   0  0  0  0  0  0  0  0  0  0  0  0
   12.6790   37.8370   44.0350 F   0  0  0  0  0  0  0  0  0  0  0  0
  2  3  1  0  0  0  0
  3  4  2  0  0  0  0
  3  5  2  0  0  0  0
  3  6  1  0  0  0  0
  6  7  1  0  0  0  0
  7  8  1  0  0  0  0
  8  9  1  0  0  0  0
  9 10  1  0  0  0  0
 10 11  4  0  0  0  0
 10 14  4  0  0  0  0
 11 12  4  0  0  0  0
 12 13  4  0  0  0  0
 13 14  4  0  0  0  0
 13 15  1  0  0  0  0
 15 16  4  0  0  0  0
 15 39  4  0  0  0  0
 16 17  4  0  0  0  0
 17 18  4  0  0  0  0
 18 19  4  0  0  0  0
 18 38  4  0  0  0  0
 19 20  4  0  0  0  0
 20 21  4  0  0  0  0
 21 22  4  0  0  0  0
 22 23  1  0  0  0  0
 22 38  4  0  0  0  0
 23 24  1  0  0  0  0
 24 25  4  0  0  0  0
 24 37  4  0  0  0  0
 25 26  4  0  0  0  0
 26 27  4  0  0  0  0
 27 28  1  0  0  0  0
 27 36  4  0  0  0  0
 28 29  1  0  0  0  0
 29 30  1  0  0  0  0
 30 31  4  0  0  0  0
 30 35  4  0  0  0  0
 31 32  4  0  0  0  0
 32 33  4  0  0  0  0
 33 34  4  0  0  0  0
 34 35  4  0  0  0  0
 34 40  1  0  0  0  0
  1 36  1  0  0  0  0
 36 37  4  0  0  0  0
 38 39  4  0  0  0  0
M  END
$$$$
