egfr_4jq8_crystal_ligand
  PyMOL3.1          3D                             0

 39 43  0  0  0  0  0  0  0  0999 V2000
  147.4820  122.4160  199.4480 N   0  0  0  0  0  0  0  0  0  0  0  0
  147.8220  120.9760  199.6370 C   0  0  0  0  0  0  0  0  0  0  0  0
  148.7770  120.5070  198.5660 C   0  0  0  0  0  0  0  0  0  0  0  0
  150.0700  121.0460  198.8070 O   0  0  0  0  0  0  0  0  0  0  0  0
  146.9610  125.3930  199.2200 C   0  0  0  0  0  0  0  0  0  0  0  0
  146.3940  126.5800  199.5480 C   0  0  0  0  0  0  0  0  0  0  0  0
  145.6290  126.4140  200.6270 O   0  0  0  0  0  0  0  0  0  0  0  0
  145.6910  125.1240  200.9760 C   0  0  0  0  0  0  0  0  0  0  0  0
  146.5090  124.4600  200.1160 C   0  0  0  0  0  0  0  0  0  0  0  0
  145.0710  124.5160  201.9980 N   0  0  0  0  0  0  0  0  0  0  0  0
  145.2770  123.1540  202.2020 C   0  0  0  0  0  0  0  0  0  0  0  0
  146.1150  122.4720  201.3340 N   0  0  0  0  0  0  0  0  0  0  0  0
  146.7090  123.1240  200.3130 C   0  0  0  0  0  0  0  0  0  0  0  0
  146.5280  127.8050  199.0400 C   0  0  0  0  0  0  0  0  0  0  0  0
  147.5520  128.1700  198.1520 C   0  0  0  0  0  0  0  0  0  0  0  0
  147.6440  129.4830  197.7040 C   0  0  0  0  0  0  0  0  0  0  0  0
  146.7540  130.4470  198.1670 C   0  0  0  0  0  0  0  0  0  0  0  0
  145.7640  130.1090  199.0800 C   0  0  0  0  0  0  0  0  0  0  0  0
  145.6560  128.7960  199.5200 C   0  0  0  0  0  0  0  0  0  0  0  0
  147.7970  125.1300  198.1740 C   0  0  0  0  0  0  0  0  0  0  0  0
  146.6880  120.1040  199.6130 C   0  0  0  0  0  0  0  0  0  0  0  0
  145.4330  120.4960  199.1440 C   0  0  0  0  0  0  0  0  0  0  0  0
  144.3500  119.6110  199.1490 C   0  0  0  0  0  0  0  0  0  0  0  0
  144.4990  118.3090  199.6090 C   0  0  0  0  0  0  0  0  0  0  0  0
  145.7420  117.9030  200.0660 C   0  0  0  0  0  0  0  0  0  0  0  0
  146.8180  118.7910  200.0750 C   0  0  0  0  0  0  0  0  0  0  0  0
  147.4190  125.3870  196.8500 C   0  0  0  0  0  0  0  0  0  0  0  0
  148.2850  125.0940  195.7960 C   0  0  0  0  0  0  0  0  0  0  0  0
  149.5380  124.5230  196.0210 C   0  0  0  0  0  0  0  0  0  0  0  0
  149.9490  124.2320  197.3340 C   0  0  0  0  0  0  0  0  0  0  0  0
  149.0610  124.5510  198.3820 C   0  0  0  0  0  0  0  0  0  0  0  0
  151.1450  123.6630  197.6740 N   0  0  0  0  0  0  0  0  0  0  0  0
  152.1640  123.5670  196.7710 C   0  0  0  0  0  0  0  0  0  0  0  0
  153.4990  122.9410  197.2770 C   0  0  0  0  0  0  0  0  0  0  0  0
  154.1330  122.1350  196.1470 C   0  0  0  0  0  0  0  0  0  0  0  0
  154.3330  120.7330  196.5650 N   0  0  0  0  0  0  0  0  0  0  0  0
  152.1110  124.0380  195.6440 O   0  0  0  0  0  0  0  0  0  0  0  0
  153.2940  119.8090  196.0690 C   0  0  0  0  0  0  0  0  0  0  0  0
  155.6730  120.1920  196.2610 C   0  0  0  0  0  0  0  0  0  0  0  0
  1  2  1  0  0  0  0
  2  3  1  0  0  0  0
  2 21  1  0  0  0  0
  3  4  1  0  0  0  0
  5  6  4  0  0  0  0
  5  9  4  0  0  0  0
  6  7  4  0  0  0  0
  6 14  1  0  0  0  0
  7  8  4  0  0  0  0
  8 10  4  0  0  0  0
  8  9  4  0  0  0  0
  9 13  4  0  0  0  0
 10 11  4  0  0  0  0
 11 12  4  0  0  0  0
 12 13  4  0  0  0  0
  1 13  1  0  0  0  0
 14 15  4  0  0  0  0
 14 19  4  0  0  0  0
 15 16  4  0  0  0  0
 16 17  4  0  0  0  0
 17 18  4  0  0  0  0
 18 19  4  0  0  0  0
  5 20  1  0  0  0  0
 21 22  4  0  0  0  0
 21 26  4  0  0  0  0
 22 23  4  0  0  0  0
 23 24  4  0  0  0  0
 24 25  4  0  0  0  0
 25 26  4  0  0  0  0
 20 27  4  0  0  0  0
 27 28  4  0  0  0  0
 28 29  4  0  0  0  0
 29 30  4  0  0  0  0
 30 31  4  0  0  0  0
 20 31  4  0  0  0  0
 30 32  1  0  0  0  0
 32 33  1  0  0  0  0
 33 37  2  0  0  0  0
 33 34  1  0  0  0  0
 34 35  1  0  0  0  0
 35 36  1  0  0  0  0
 36 38  1  0  0  0  0
 36 39  1  0  0  0  0
M  END
$$$$
