erbb2_3pp0_crystal_ligand
  PyMOL3.1          3D                             0

 34 37  0  0  0  0  0  0  0  0999 V2000
   18.5300   16.8010   23.2920 Cl  0  0  0  0  0  0  0  0  0  0  0  0
   12.9040   15.4160   27.6660 O   0  0  0  0  0  0  0  0  0  0  0  0
   12.7010   15.4320   29.0830 C   0  0  0  0  0  0  0  0  0  0  0  0
   13.6420   14.4880   29.8430 C   0  0  0  0  0  0  0  0  0  0  0  0
   14.2820   13.5780   28.9490 O   0  0  0  0  0  0  0  0  0  0  0  0
   14.3860   12.2360   29.4150 C   0  0  0  0  0  0  0  0  0  0  0  0
   15.2870   11.5040   28.4250 C   0  0  0  0  0  0  0  0  0  0  0  0
   16.7110   11.4550   28.8350 N   0  0  0  0  0  0  0  0  0  0  0  0
   17.2480   10.4260   29.5520 C   0  0  0  0  0  0  0  0  0  0  0  0
   18.5700   10.6210   29.7440 C   0  0  0  0  0  0  0  0  0  0  0  0
   18.9150   11.8710   29.0910 C   0  0  0  0  0  0  0  0  0  0  0  0
   20.0600   12.5660   28.9470 N   0  0  0  0  0  0  0  0  0  0  0  0
   20.0730   13.7020   28.2760 C   0  0  0  0  0  0  0  0  0  0  0  0
   18.9650   14.2110   27.7290 N   0  0  0  0  0  0  0  0  0  0  0  0
   17.7780   13.5830   27.8240 C   0  0  0  0  0  0  0  0  0  0  0  0
   16.6330   14.1290   27.2530 N   0  0  0  0  0  0  0  0  0  0  0  0
   16.6740   15.2830   26.4610 C   0  0  0  0  0  0  0  0  0  0  0  0
   15.8300   16.3470   26.7750 C   0  0  0  0  0  0  0  0  0  0  0  0
   15.8160   17.4600   26.0650 N   0  0  0  0  0  0  0  0  0  0  0  0
   16.6130   17.6270   25.0380 C   0  0  0  0  0  0  0  0  0  0  0  0
   16.5470   18.8100   24.3620 O   0  0  0  0  0  0  0  0  0  0  0  0
   17.3830   19.8530   24.6570 C   0  0  0  0  0  0  0  0  0  0  0  0
   18.4440   19.7380   25.5530 C   0  0  0  0  0  0  0  0  0  0  0  0
   19.2830   20.8190   25.8100 C   0  0  0  0  0  0  0  0  0  0  0  0
   19.0830   22.0330   25.1770 C   0  0  0  0  0  0  0  0  0  0  0  0
   18.0320   22.1390   24.2780 C   0  0  0  0  0  0  0  0  0  0  0  0
   17.1940   21.0640   24.0140 C   0  0  0  0  0  0  0  0  0  0  0  0
   17.8170   23.4520   23.5920 C   0  0  0  0  0  0  0  0  0  0  0  0
   17.4910   16.6020   24.6570 C   0  0  0  0  0  0  0  0  0  0  0  0
   17.5300   15.4110   25.3730 C   0  0  0  0  0  0  0  0  0  0  0  0
   17.7100   12.3580   28.5250 C   0  0  0  0  0  0  0  0  0  0  0  0
   16.8670   23.4020   22.5930 F   0  0  0  0  0  0  0  0  0  0  0  0
   19.0360   23.8760   23.0710 F   0  0  0  0  0  0  0  0  0  0  0  0
   17.3300   24.3620   24.4970 F   0  0  0  0  0  0  0  0  0  0  0  0
  2  3  1  0  0  0  0
  3  4  1  0  0  0  0
  4  5  1  0  0  0  0
  5  6  1  0  0  0  0
  6  7  1  0  0  0  0
  7  8  1  0  0  0  0
  8  9  4  0  0  0  0
  8 31  4  0  0  0  0
  9 10  4  0  0  0  0
 10 11  4  0  0  0  0
 11 12  4  0  0  0  0
 11 31  4  0  0  0  0
 12 13  4  0  0  0  0
 13 14  4  0  0  0  0
 14 15  4  0  0  0  0
 15 16  1  0  0  0  0
 15 31  4  0  0  0  0
 16 17  1  0  0  0  0
 17 18  4  0  0  0  0
 17 30  4  0  0  0  0
 18 19  4  0  0  0  0
 19 20  4  0  0  0  0
 20 21  1  0  0  0  0
 20 29  4  0  0  0  0
 21 22  1  0  0  0  0
 22 23  4  0  0  0  0
 22 27  4  0  0  0  0
 23 24  4  0  0  0  0
 24 25  4  0  0  0  0
 25 26  4  0  0  0  0
 26 27  4  0  0  0  0
 26 28  1  0  0  0  0
 28 32  1  0  0  0  0
 28 33  1  0  0  0  0
 28 34  1  0  0  0  0
  1 29  1  0  0  0  0
 29 30  4  0  0  0  0
M  END
$$$$
