erbb2_7pcd_crystal_ligand
  PyMOL3.1          3D                             0

 45 51  0  0  0  0  0  0  0  0999 V2000
    8.2440   -1.1250  -13.0640 Cl  0  0  0  0  0  0  0  0  0  0  0  0
    7.0330   -4.6240  -17.0560 Cl  0  0  0  0  0  0  0  0  0  0  0  0
   15.1990  -16.6810  -17.4020 C   0  0  0  0  0  0  0  0  0  0  0  0
   15.0640  -16.1210  -15.9830 C   0  0  0  0  0  0  0  0  0  0  0  0
   13.5920  -16.0410  -16.1370 N   0  0  0  0  0  0  0  0  0  0  0  0
   13.7200  -17.0670  -17.2000 C   0  0  0  0  0  0  0  0  0  0  0  0
   12.8280  -16.5030  -14.9530 C   0  0  0  0  0  0  0  0  0  0  0  0
   12.1720  -15.3570  -14.1570 C   0  0  0  0  0  0  0  0  0  0  0  0
   13.1330  -14.2400  -13.6830 C   0  0  0  0  0  0  0  0  0  0  0  0
   12.6310  -12.8350  -13.9980 C   0  0  0  0  0  0  0  0  0  0  0  0
   12.5540  -12.6120  -15.1940 O   0  0  0  0  0  0  0  0  0  0  0  0
   12.3060  -11.8390  -13.0880 N   0  0  0  0  0  0  0  0  0  0  0  0
   12.3500  -11.9590  -11.6020 C   0  0  0  0  0  0  0  0  0  0  0  0
   13.3170  -10.9200  -11.0240 C   0  0  0  0  0  0  0  0  0  0  0  0
   12.8870   -9.5620  -11.4530 N   0  0  0  0  0  0  0  0  0  0  0  0
   12.8730   -9.4800  -12.9430 C   0  0  0  0  0  0  0  0  0  0  0  0
   11.8420  -10.4820  -13.5020 C   0  0  0  0  0  0  0  0  0  0  0  0
   11.8580   -8.9150  -10.7300 C   0  0  0  0  0  0  0  0  0  0  0  0
   11.0840   -8.0050  -11.3450 N   0  0  0  0  0  0  0  0  0  0  0  0
   10.0920   -7.3470  -10.7180 C   0  0  0  0  0  0  0  0  0  0  0  0
    9.8430   -7.6120   -9.3250 C   0  0  0  0  0  0  0  0  0  0  0  0
   10.6860   -8.5750   -8.7030 C   0  0  0  0  0  0  0  0  0  0  0  0
   11.6450   -9.1730   -9.4170 N   0  0  0  0  0  0  0  0  0  0  0  0
    8.8430   -6.9410   -8.6990 N   0  0  0  0  0  0  0  0  0  0  0  0
    8.1040   -6.0590   -9.3670 C   0  0  0  0  0  0  0  0  0  0  0  0
    8.2780   -5.7710  -10.6630 N   0  0  0  0  0  0  0  0  0  0  0  0
    9.2430   -6.3540  -11.4040 C   0  0  0  0  0  0  0  0  0  0  0  0
    9.4720   -6.0970  -12.7520 N   0  0  0  0  0  0  0  0  0  0  0  0
    8.8760   -5.0580  -13.4840 C   0  0  0  0  0  0  0  0  0  0  0  0
    8.8520   -3.7430  -12.9840 C   0  0  0  0  0  0  0  0  0  0  0  0
    8.2600   -2.7260  -13.7220 C   0  0  0  0  0  0  0  0  0  0  0  0
    7.7070   -2.9930  -14.9820 C   0  0  0  0  0  0  0  0  0  0  0  0
    7.1150   -1.9820  -15.6830 O   0  0  0  0  0  0  0  0  0  0  0  0
    5.7550   -1.7850  -15.6480 C   0  0  0  0  0  0  0  0  0  0  0  0
    5.1940   -1.1580  -16.7870 C   0  0  0  0  0  0  0  0  0  0  0  0
    3.8590   -0.9250  -16.8430 C   0  0  0  0  0  0  0  0  0  0  0  0
    3.0550   -1.2930  -15.8000 N   0  0  0  0  0  0  0  0  0  0  0  0
    1.6740   -1.1730  -15.6010 N   0  0  0  0  0  0  0  0  0  0  0  0
    1.4030   -1.6910  -14.4290 C   0  0  0  0  0  0  0  0  0  0  0  0
    2.5170   -2.1400  -13.8550 N   0  0  0  0  0  0  0  0  0  0  0  0
    3.5450   -1.9110  -14.6720 C   0  0  0  0  0  0  0  0  0  0  0  0
    4.9300   -2.1700  -14.5890 C   0  0  0  0  0  0  0  0  0  0  0  0
    7.7290   -4.3000  -15.4960 C   0  0  0  0  0  0  0  0  0  0  0  0
    8.3200   -5.3300  -14.7520 C   0  0  0  0  0  0  0  0  0  0  0  0
   15.4230  -15.6880  -18.3660 F   0  0  0  0  0  0  0  0  0  0  0  0
  3  4  1  0  0  0  0
  3  6  1  0  0  0  0
  3 45  1  0  0  0  0
  4  5  1  0  0  0  0
  5  6  1  0  0  0  0
  5  7  1  0  0  0  0
  7  8  1  0  0  0  0
  8  9  1  0  0  0  0
  9 10  1  0  0  0  0
 10 11  2  0  0  0  0
 10 12  1  0  0  0  0
 12 13  1  0  0  0  0
 13 14  1  0  0  0  0
 14 15  1  0  0  0  0
 15 16  1  0  0  0  0
 16 17  1  0  0  0  0
 12 17  1  0  0  0  0
 15 18  1  0  0  0  0
 18 19  4  0  0  0  0
 18 23  4  0  0  0  0
 19 20  4  0  0  0  0
 20 21  4  0  0  0  0
 20 27  4  0  0  0  0
 21 24  4  0  0  0  0
 21 22  4  0  0  0  0
 22 23  4  0  0  0  0
 24 25  4  0  0  0  0
 25 26  4  0  0  0  0
 26 27  4  0  0  0  0
 27 28  1  0  0  0  0
 28 29  1  0  0  0  0
 29 30  4  0  0  0  0
 29 44  4  0  0  0  0
  1 31  1  0  0  0  0
 30 31  4  0  0  0  0
 31 32  4  0  0  0  0
 32 33  1  0  0  0  0
 32 43  4  0  0  0  0
 33 34  1  0  0  0  0
 34 35  4  0  0  0  0
 34 42  4  0  0  0  0
 35 36  4  0  0  0  0
 36 37  4  0  0  0  0
 37 38  4  0  0  0  0
 37 41  4  0  0  0  0
 38 39  4  0  0  0  0
 39 40  4  0  0  0  0
 40 41  4  0  0  0  0
 41 42  4  0  0  0  0
  2 43  1  0  0  0  0
 43 44  4  0  0  0  0
M  END
$$$$
