kdr_5ew3_crystal_ligand
  PyMOL3.1          3D                             0

 27 29  0  0  0  0  0  0  0  0999 V2000
   17.1990   12.2780   12.8290 C   0  0  0  0  0  0  0  0  0  0  0  0
   16.0610   11.7210   13.4340 C   0  0  0  0  0  0  0  0  0  0  0  0
   16.0600   10.3730   13.8160 C   0  0  0  0  0  0  0  0  0  0  0  0
   17.1910    9.5420   13.6080 C   0  0  0  0  0  0  0  0  0  0  0  0
   18.3390   10.1040   12.9620 C   0  0  0  0  0  0  0  0  0  0  0  0
   18.3210   11.4690   12.5990 C   0  0  0  0  0  0  0  0  0  0  0  0
   19.6220    9.3210   12.6930 C   0  0  0  0  0  0  0  0  0  0  0  0
   17.1540    8.2210   13.9790 N   0  0  0  0  0  0  0  0  0  0  0  0
   20.7900    9.9840   12.4730 N   0  0  0  0  0  0  0  0  0  0  0  0
   19.5570    8.1040   12.6540 O   0  0  0  0  0  0  0  0  0  0  0  0
   22.0620    9.3980   12.2390 C   0  0  0  0  0  0  0  0  0  0  0  0
   22.2670    8.2810   11.4040 C   0  0  0  0  0  0  0  0  0  0  0  0
   23.5680    7.7720   11.2180 C   0  0  0  0  0  0  0  0  0  0  0  0
   24.6620    8.3700   11.8720 C   0  0  0  0  0  0  0  0  0  0  0  0
   24.4720    9.4860   12.6930 C   0  0  0  0  0  0  0  0  0  0  0  0
   23.1710    9.9770   12.8750 C   0  0  0  0  0  0  0  0  0  0  0  0
   16.0040    7.5220   14.5690 C   0  0  0  0  0  0  0  0  0  0  0  0
   14.8740    7.1600   13.5790 C   0  0  0  0  0  0  0  0  0  0  0  0
   15.0320    7.2820   12.1760 C   0  0  0  0  0  0  0  0  0  0  0  0
   13.9760    6.9350   11.3200 C   0  0  0  0  0  0  0  0  0  0  0  0
   12.8070    6.4710   11.8500 N   0  0  0  0  0  0  0  0  0  0  0  0
   12.6150    6.3280   13.1940 C   0  0  0  0  0  0  0  0  0  0  0  0
   13.6470    6.6710   14.0890 C   0  0  0  0  0  0  0  0  0  0  0  0
   23.7460    6.5270   10.3600 C   0  0  0  0  0  0  0  0  0  0  0  0
   24.9960    6.3780    9.8700 F   0  0  0  0  0  0  0  0  0  0  0  0
   23.5080    5.4500   11.1320 F   0  0  0  0  0  0  0  0  0  0  0  0
   22.8600    6.5390    9.3480 F   0  0  0  0  0  0  0  0  0  0  0  0
  1  2  4  0  0  0  0
  1  6  4  0  0  0  0
  2  3  4  0  0  0  0
  3  4  4  0  0  0  0
  4  5  4  0  0  0  0
  4  8  1  0  0  0  0
  5  6  4  0  0  0  0
  5  7  1  0  0  0  0
  7  9  1  0  0  0  0
  7 10  2  0  0  0  0
  9 11  1  0  0  0  0
 11 12  4  0  0  0  0
 11 16  4  0  0  0  0
 12 13  4  0  0  0  0
 13 14  4  0  0  0  0
 13 24  1  0  0  0  0
 14 15  4  0  0  0  0
 15 16  4  0  0  0  0
  8 17  1  0  0  0  0
 17 18  1  0  0  0  0
 18 19  4  0  0  0  0
 18 23  4  0  0  0  0
 19 20  4  0  0  0  0
 20 21  4  0  0  0  0
 21 22  4  0  0  0  0
 22 23  4  0  0  0  0
 24 25  1  0  0  0  0
 24 26  1  0  0  0  0
 24 27  1  0  0  0  0
M  END
$$$$
