mmp1_1hfc_crystal_ligand
  PyMOL3.1          3D                             0

 25 25  0  0  0  0  0  0  0  0999 V2000
   21.1420   23.3300   26.8000 C   0  0  0  0  0  0  0  0  0  0  0  0
   20.4910   24.4210   27.0410 N   0  0  0  0  0  0  0  0  0  0  0  0
   19.1430   24.1650   27.2030 O   0  0  0  0  0  0  0  0  0  0  0  0
   22.6380   23.4260   26.4960 C   0  0  0  0  0  0  0  0  0  0  0  0
   25.0010   22.0420   24.3280 N   0  0  0  0  0  0  0  0  0  0  0  0
   20.7600   22.1410   26.7350 O   0  0  0  0  0  0  0  0  0  0  0  0
   22.9780   23.1650   24.9880 C   0  0  0  0  0  0  0  0  0  0  0  0
   27.8780   23.1290   22.7000 N   0  0  0  0  0  0  0  0  0  0  0  0
   25.0240   24.2730   24.8060 O   0  0  0  0  0  0  0  0  0  0  0  0
   22.1780   24.0470   23.9970 C   0  0  0  0  0  0  0  0  0  0  0  0
   26.3960   21.6290   21.8480 O   0  0  0  0  0  0  0  0  0  0  0  0
   22.2300   23.6020   22.4980 C   0  0  0  0  0  0  0  0  0  0  0  0
   21.5760   22.2700   22.2320 C   0  0  0  0  0  0  0  0  0  0  0  0
   21.5770   24.6900   21.6610 C   0  0  0  0  0  0  0  0  0  0  0  0
   24.4540   23.2130   24.6480 C   0  0  0  0  0  0  0  0  0  0  0  0
   26.4650   21.9820   24.2310 C   0  0  0  0  0  0  0  0  0  0  0  0
   26.8650   22.2310   22.8270 C   0  0  0  0  0  0  0  0  0  0  0  0
   28.3790   23.4890   21.4220 C   0  0  0  0  0  0  0  0  0  0  0  0
   26.9070   20.5340   24.5860 C   0  0  0  0  0  0  0  0  0  0  0  0
   28.4110   20.3870   24.5400 C   0  0  0  0  0  0  0  0  0  0  0  0
   29.1820   20.8350   25.6090 C   0  0  0  0  0  0  0  0  0  0  0  0
   30.5860   20.6820   25.5580 C   0  0  0  0  0  0  0  0  0  0  0  0
   31.1310   20.2000   24.3970 C   0  0  0  0  0  0  0  0  0  0  0  0
   30.4180   19.6040   23.4160 C   0  0  0  0  0  0  0  0  0  0  0  0
   29.0030   19.6880   23.4810 C   0  0  0  0  0  0  0  0  0  0  0  0
  1  2  4  0  0  0  0
  1  4  1  0  0  0  0
  1  6  4  0  0  0  0
  2  3  4  0  0  0  0
  4  7  1  0  0  0  0
  7 10  1  0  0  0  0
  7 15  1  0  0  0  0
 10 12  1  0  0  0  0
 12 13  1  0  0  0  0
 12 14  1  0  0  0  0
  5 15  1  0  0  0  0
  9 15  2  0  0  0  0
  5 16  1  0  0  0  0
 16 17  1  0  0  0  0
 16 19  1  0  0  0  0
  8 17  1  0  0  0  0
 11 17  2  0  0  0  0
  8 18  1  0  0  0  0
 19 20  1  0  0  0  0
 20 21  4  0  0  0  0
 20 25  4  0  0  0  0
 21 22  4  0  0  0  0
 22 23  4  0  0  0  0
 23 24  4  0  0  0  0
 24 25  4  0  0  0  0
M  END
$$$$
