mmp13_3wv1_crystal_ligand
  PyMOL3.1          3D                             0

 36 39  0  0  0  0  0  0  0  0999 V2000
   47.7960   -5.8430   -6.3180 C   0  0  0  0  0  0  0  0  0  0  0  0
   46.4370   -6.0660   -6.2620 C   0  0  0  0  0  0  0  0  0  0  0  0
   45.6300   -5.5510   -7.2570 C   0  0  0  0  0  0  0  0  0  0  0  0
   46.1540   -4.8050   -8.2990 C   0  0  0  0  0  0  0  0  0  0  0  0
   47.5220   -4.5920   -8.3520 C   0  0  0  0  0  0  0  0  0  0  0  0
   48.3390   -5.1120   -7.3550 C   0  0  0  0  0  0  0  0  0  0  0  0
   49.7110   -4.9340   -7.3520 O   0  0  0  0  0  0  0  0  0  0  0  0
   50.1930   -6.2130   -7.7820 C   0  0  0  0  0  0  0  0  0  0  0  0
   51.4780   -6.0140   -8.5310 C   0  0  0  0  0  0  0  0  0  0  0  0
   52.1220   -7.2710   -9.0180 C   0  0  0  0  0  0  0  0  0  0  0  0
   52.1070   -7.5230  -10.3750 C   0  0  0  0  0  0  0  0  0  0  0  0
   52.7080   -8.6550  -10.8800 C   0  0  0  0  0  0  0  0  0  0  0  0
   53.3220   -9.5320  -10.0120 C   0  0  0  0  0  0  0  0  0  0  0  0
   53.3430   -9.3010   -8.6490 C   0  0  0  0  0  0  0  0  0  0  0  0
   52.7420   -8.1590   -8.1560 C   0  0  0  0  0  0  0  0  0  0  0  0
   53.9610  -10.7230  -10.5820 C   0  0  0  0  0  0  0  0  0  0  0  0
   54.3880  -10.7850  -11.7230 O   0  0  0  0  0  0  0  0  0  0  0  0
   54.0200  -11.6840   -9.6400 O   0  0  0  0  0  0  0  0  0  0  0  0
   48.0850   -3.7930   -9.4660 C   0  0  0  0  0  0  0  0  0  0  0  0
   49.2820   -3.5750   -9.5630 O   0  0  0  0  0  0  0  0  0  0  0  0
   47.1610   -3.3360  -10.3600 N   0  0  0  0  0  0  0  0  0  0  0  0
   45.8280   -3.6320  -10.2250 C   0  0  0  0  0  0  0  0  0  0  0  0
   45.2790   -4.3170   -9.2720 N   0  0  0  0  0  0  0  0  0  0  0  0
   45.0170   -3.0900  -11.3440 C   0  0  0  0  0  0  0  0  0  0  0  0
   45.5720   -2.3860  -12.1600 O   0  0  0  0  0  0  0  0  0  0  0  0
   43.7510   -3.5850  -11.4290 N   0  0  0  0  0  0  0  0  0  0  0  0
   43.0210   -3.3270  -12.6330 C   0  0  0  0  0  0  0  0  0  0  0  0
   43.3220   -4.2230  -13.7980 C   0  0  0  0  0  0  0  0  0  0  0  0
   42.6420   -4.0030  -14.9780 C   0  0  0  0  0  0  0  0  0  0  0  0
   42.8620   -4.7830  -16.0830 C   0  0  0  0  0  0  0  0  0  0  0  0
   43.7920   -5.8010  -16.0320 C   0  0  0  0  0  0  0  0  0  0  0  0
   44.4840   -6.0260  -14.8610 C   0  0  0  0  0  0  0  0  0  0  0  0
   44.2450   -5.2410  -13.7520 C   0  0  0  0  0  0  0  0  0  0  0  0
   42.1000   -4.4770  -17.2060 O   0  0  0  0  0  0  0  0  0  0  0  0
   42.4640   -5.2640  -18.3330 C   0  0  0  0  0  0  0  0  0  0  0  0
   48.6120   -6.3350   -5.3660 F   0  0  0  0  0  0  0  0  0  0  0  0
  1 36  1  0  0  0  0
  1  2  4  0  0  0  0
  2  3  4  0  0  0  0
  3  4  4  0  0  0  0
  4 23  4  0  0  0  0
  4  5  4  0  0  0  0
  5  6  4  0  0  0  0
  5 19  4  0  0  0  0
  1  6  4  0  0  0  0
  6  7  1  0  0  0  0
  7  8  1  0  0  0  0
  8  9  1  0  0  0  0
  9 10  1  0  0  0  0
 10 11  4  0  0  0  0
 11 12  4  0  0  0  0
 12 13  4  0  0  0  0
 13 16  1  0  0  0  0
 13 14  4  0  0  0  0
 14 15  4  0  0  0  0
 10 15  4  0  0  0  0
 16 17  4  0  0  0  0
 16 18  4  0  0  0  0
 19 20  2  0  0  0  0
 19 21  4  0  0  0  0
 21 22  4  0  0  0  0
 22 23  4  0  0  0  0
 22 24  1  0  0  0  0
 24 25  2  0  0  0  0
 24 26  1  0  0  0  0
 26 27  1  0  0  0  0
 27 28  1  0  0  0  0
 28 29  4  0  0  0  0
 29 30  4  0  0  0  0
 30 34  1  0  0  0  0
 30 31  4  0  0  0  0
 31 32  4  0  0  0  0
 32 33  4  0  0  0  0
 28 33  4  0  0  0  0
 34 35  1  0  0  0  0
M  END
$$$$
