mmp2_crystal_ligand
  PyMOL3.1          3D                             0

 76 78  0  0  0  0  0  0  0  0999 V2000
   51.3450  -49.6880   25.3510 C   0  0  0  0  0  0  0  0  0  0  0  0
   52.6100  -48.9650   24.9380 C   0  0  0  0  0  0  0  0  0  0  0  0
   53.4540  -48.3870   25.8370 C   0  0  0  0  0  0  0  0  0  0  0  0
   54.5880  -47.7290   25.3500 C   0  0  0  0  0  0  0  0  0  0  0  0
   54.9010  -47.6830   23.9650 C   0  0  0  0  0  0  0  0  0  0  0  0
   57.1580  -46.8770   24.1800 C   0  0  0  0  0  0  0  0  0  0  0  0
   57.9530  -45.7350   23.9730 C   0  0  0  0  0  0  0  0  0  0  0  0
   59.1650  -45.5860   24.6460 C   0  0  0  0  0  0  0  0  0  0  0  0
   59.5660  -46.5260   25.5720 C   0  0  0  0  0  0  0  0  0  0  0  0
   58.7880  -47.6600   25.8050 C   0  0  0  0  0  0  0  0  0  0  0  0
   57.5890  -47.8650   25.1030 C   0  0  0  0  0  0  0  0  0  0  0  0
   60.8820  -46.3490   26.3050 C   0  0  0  0  0  0  0  0  0  0  0  0
   54.0610  -48.2780   23.1020 C   0  0  0  0  0  0  0  0  0  0  0  0
   52.9260  -48.9310   23.5740 C   0  0  0  0  0  0  0  0  0  0  0  0
   61.1020  -46.8980   27.5170 N   0  0  0  0  0  0  0  0  0  0  0  0
   50.4700  -49.7730   24.4650 O   0  0  0  0  0  0  0  0  0  0  0  0
   55.9820  -47.0220   23.4630 O   0  0  0  0  0  0  0  0  0  0  0  0
   61.7380  -45.7030   25.7440 O   0  0  0  0  0  0  0  0  0  0  0  0
   51.2770  -50.1090   26.6410 N   0  0  0  0  0  0  0  0  0  0  0  0
   49.8080  -54.5520   28.2840 C   0  0  0  0  0  0  0  0  0  0  0  0
   50.0570  -55.3270   27.0140 C   0  0  0  0  0  0  0  0  0  0  0  0
   51.2140  -55.4530   26.6370 O   0  0  0  0  0  0  0  0  0  0  0  0
   49.2640  -53.1470   27.8940 C   0  0  0  0  0  0  0  0  0  0  0  0
   50.3900  -52.3020   27.2270 C   0  0  0  0  0  0  0  0  0  0  0  0
   50.1080  -50.8070   27.1940 C   0  0  0  0  0  0  0  0  0  0  0  0
   48.9420  -55.7380   26.3780 N   0  0  0  0  0  0  0  0  0  0  0  0
   49.0150  -56.5330   25.1770 C   0  0  0  0  0  0  0  0  0  0  0  0
   49.3050  -55.7290   23.9480 C   0  0  0  0  0  0  0  0  0  0  0  0
   48.4470  -55.6410   23.0500 O   0  0  0  0  0  0  0  0  0  0  0  0
   47.6560  -57.3350   25.0880 C   0  0  0  0  0  0  0  0  0  0  0  0
   47.8480  -58.7020   24.4340 C   0  0  0  0  0  0  0  0  0  0  0  0
   46.5600  -59.4730   24.0580 C   0  0  0  0  0  0  0  0  0  0  0  0
   46.7990  -60.6180   23.5990 O   0  0  0  0  0  0  0  0  0  0  0  0
   45.3500  -59.0350   24.2020 O   0  5  0  0  0  0  0  0  0  0  0  0
   50.5220  -55.1500   23.8450 N   0  0  0  0  0  0  0  0  0  0  0  0
   50.7700  -54.3200   22.6670 C   0  0  0  0  0  0  0  0  0  0  0  0
   51.5490  -54.9770   21.5280 C   0  0  0  0  0  0  0  0  0  0  0  0
   51.8470  -54.3180   20.5830 O   0  0  0  0  0  0  0  0  0  0  0  0
   51.4000  -53.0210   23.1680 C   0  0  0  0  0  0  0  0  0  0  0  0
   52.8970  -53.2160   23.5040 C   0  0  0  0  0  0  0  0  0  0  0  0
   53.2180  -54.3220   23.9700 O   0  0  0  0  0  0  0  0  0  0  0  0
   53.7810  -52.3210   23.2900 O   0  5  0  0  0  0  0  0  0  0  0  0
   51.8800  -56.2650   21.6460 N   0  0  0  0  0  0  0  0  0  0  0  0
   52.6800  -57.1220   20.7800 C   0  0  0  0  0  0  0  0  0  0  0  0
   51.8630  -58.3580   20.5460 C   0  0  0  0  0  0  0  0  0  0  0  0
   51.7170  -59.1450   21.4530 O   0  0  0  0  0  0  0  0  0  0  0  0
   54.0240  -57.4070   21.3880 C   0  0  0  0  0  0  0  0  0  0  0  0
   54.1020  -57.4230   22.9120 C   0  0  0  0  0  0  0  0  0  0  0  0
   53.8000  -58.7470   23.4630 N   0  0  0  0  0  0  0  0  0  0  0  0
   51.2940  -58.4430   19.3420 N   0  0  0  0  0  0  0  0  0  0  0  0
   50.3780  -59.4810   18.9840 C   0  0  0  0  0  0  0  0  0  0  0  0
   50.8290  -60.4770   17.9450 C   0  0  0  0  0  0  0  0  0  0  0  0
   51.6350  -60.1140   17.1190 O   0  0  0  0  0  0  0  0  0  0  0  0
   49.1810  -58.7650   18.3640 C   0  0  0  0  0  0  0  0  0  0  0  0
   48.5990  -57.6280   19.2090 C   0  0  0  0  0  0  0  0  0  0  0  0
   47.5500  -56.8850   18.4260 C   0  0  0  0  0  0  0  0  0  0  0  0
   48.0440  -58.1690   20.5300 C   0  0  0  0  0  0  0  0  0  0  0  0
   50.2630  -61.7130   18.0000 N   0  0  0  0  0  0  0  0  0  0  0  0
   50.6240  -62.7070   16.9840 C   0  0  0  0  0  0  0  0  0  0  0  0
   49.6310  -62.6910   15.8760 C   0  0  0  0  0  0  0  0  0  0  0  0
   48.4260  -62.6200   16.0980 O   0  0  0  0  0  0  0  0  0  0  0  0
   50.7690  -64.0870   17.6140 C   0  0  0  0  0  0  0  0  0  0  0  0
   51.9330  -64.0970   18.6080 C   0  0  0  0  0  0  0  0  0  0  0  0
   52.3050  -65.5370   18.9090 C   0  0  0  0  0  0  0  0  0  0  0  0
   52.7230  -65.8190   20.0240 O   0  0  0  0  0  0  0  0  0  0  0  0
   52.2100  -66.4310   18.0510 O   0  0  0  0  0  0  0  0  0  0  0  0
   49.2640  -62.1080   18.9970 C   0  0  0  0  0  0  0  0  0  0  0  0
   50.0970  -62.6560   14.6260 N   0  0  0  0  0  0  0  0  0  0  0  0
   48.7610  -64.1050   13.2270 C   0  0  0  0  0  0  0  0  0  0  0  0
   48.2230  -64.1940   11.8150 C   0  0  0  0  0  0  0  0  0  0  0  0
   48.8150  -64.8370   10.9060 O   0  0  0  0  0  0  0  0  0  0  0  0
   49.1740  -62.6280   13.4780 C   0  0  0  0  0  0  0  0  0  0  0  0
   50.0130  -62.1130   12.3390 C   0  0  0  0  0  0  0  0  0  0  0  0
   51.3970  -62.6830   12.6500 C   0  0  0  0  0  0  0  0  0  0  0  0
   51.4790  -62.7240   14.1930 C   0  0  0  0  0  0  0  0  0  0  0  0
   47.0830  -63.4980   11.6500 N   0  0  0  0  0  0  0  0  0  0  0  0
  1  2  1  0  0  0  0
  1 19  1  0  0  0  0
  2  3  4  0  0  0  0
  3  4  4  0  0  0  0
  4  5  4  0  0  0  0
  6  7  4  0  0  0  0
  6 11  4  0  0  0  0
  6 17  1  0  0  0  0
  7  8  4  0  0  0  0
  8  9  4  0  0  0  0
  9 10  4  0  0  0  0
 10 11  4  0  0  0  0
  9 12  1  0  0  0  0
 12 15  1  0  0  0  0
 12 18  2  0  0  0  0
  5 13  4  0  0  0  0
  2 14  4  0  0  0  0
 13 14  4  0  0  0  0
  1 16  2  0  0  0  0
  5 17  1  0  0  0  0
 20 21  1  0  0  0  0
 20 23  1  0  0  0  0
 21 22  2  0  0  0  0
 21 26  1  0  0  0  0
 23 24  1  0  0  0  0
 24 25  1  0  0  0  0
 19 25  1  0  0  0  0
 26 27  1  0  0  0  0
 27 28  1  0  0  0  0
 27 30  1  0  0  0  0
 28 29  2  0  0  0  0
 28 35  1  0  0  0  0
 30 31  1  0  0  0  0
 31 32  1  0  0  0  0
 32 33  2  0  0  0  0
 32 34  1  0  0  0  0
 35 36  1  0  0  0  0
 36 37  1  0  0  0  0
 36 39  1  0  0  0  0
 37 38  2  0  0  0  0
 37 43  1  0  0  0  0
 39 40  1  0  0  0  0
 40 41  2  0  0  0  0
 40 42  1  0  0  0  0
 43 44  1  0  0  0  0
 44 45  1  0  0  0  0
 44 47  1  0  0  0  0
 45 46  2  0  0  0  0
 45 50  1  0  0  0  0
 47 48  1  0  0  0  0
 48 49  1  0  0  0  0
 50 51  1  0  0  0  0
 51 52  1  0  0  0  0
 51 54  1  0  0  0  0
 52 53  2  0  0  0  0
 52 58  1  0  0  0  0
 54 55  1  0  0  0  0
 55 56  1  0  0  0  0
 55 57  1  0  0  0  0
 58 59  1  0  0  0  0
 59 60  1  0  0  0  0
 59 62  1  0  0  0  0
 60 61  2  0  0  0  0
 60 68  1  0  0  0  0
 62 63  1  0  0  0  0
 63 64  1  0  0  0  0
 64 65  4  0  0  0  0
 64 66  4  0  0  0  0
 58 67  1  0  0  0  0
 69 72  1  0  0  0  0
 69 70  1  0  0  0  0
 70 71  2  0  0  0  0
 70 76  1  0  0  0  0
 68 72  1  0  0  0  0
 72 73  1  0  0  0  0
 73 74  1  0  0  0  0
 74 75  1  0  0  0  0
 68 75  1  0  0  0  0
M  END
$$$$
