mmp3_4g9l_crystal_ligand
  PyMOL3.1          3D                             0

 21 21  0  0  0  0  0  0  0  0999 V2000
   22.0190   68.1930  107.6250 N   0  0  0  0  0  0  0  0  0  0  0  0
   22.5310   69.2120  104.2520 C   0  0  0  0  0  0  0  0  0  0  0  0
   18.6690   69.2820  107.4950 N   0  0  0  0  0  0  0  0  0  0  0  0
   20.6790   71.0980  101.6780 O   0  0  0  0  0  0  0  0  0  0  0  0
   22.6180   69.4430  106.8970 S   0  0  0  0  0  0  0  0  0  0  0  0
   22.0850   69.5920  102.9840 C   0  0  0  0  0  0  0  0  0  0  0  0
   22.2440   70.5410  107.8330 O   0  0  0  0  0  0  0  0  0  0  0  0
   21.1790   70.6470  102.8800 C   0  0  0  0  0  0  0  0  0  0  0  0
   24.0870   69.3770  106.7290 O   0  0  0  0  0  0  0  0  0  0  0  0
   20.7400   71.2810  104.0320 C   0  0  0  0  0  0  0  0  0  0  0  0
   17.4930   69.2670  106.7530 O   0  0  0  0  0  0  0  0  0  0  0  0
   21.1680   70.8940  105.2890 C   0  0  0  0  0  0  0  0  0  0  0  0
   19.1350   67.1620  107.0190 O   0  0  0  0  0  0  0  0  0  0  0  0
   22.0730   69.8420  105.4190 C   0  0  0  0  0  0  0  0  0  0  0  0
   21.1910   70.7180  100.3950 C   0  0  0  0  0  0  0  0  0  0  0  0
   22.7950   66.9470  107.6270 C   0  0  0  0  0  0  0  0  0  0  0  0
   20.7370   68.3000  108.3920 C   0  0  0  0  0  0  0  0  0  0  0  0
   19.4440   68.2010  107.5730 C   0  0  0  0  0  0  0  0  0  0  0  0
   22.4260   66.0720  108.8300 C   0  0  0  0  0  0  0  0  0  0  0  0
   21.5820   64.8870  108.3710 C   0  0  0  0  0  0  0  0  0  0  0  0
   23.6750   65.5890  109.5680 C   0  0  0  0  0  0  0  0  0  0  0  0
  1 16  1  0  0  0  0
  1 17  1  0  0  0  0
  2  6  4  0  0  0  0
  2 14  4  0  0  0  0
  3 11  4  0  0  0  0
  4 15  1  0  0  0  0
  1  5  1  0  0  0  0
  5  7  2  0  0  0  0
  5  9  2  0  0  0  0
  6  8  4  0  0  0  0
  4  8  1  0  0  0  0
  8 10  4  0  0  0  0
 10 12  4  0  0  0  0
 12 14  4  0  0  0  0
  5 14  1  0  0  0  0
 16 19  1  0  0  0  0
 17 18  1  0  0  0  0
  3 18  4  0  0  0  0
 13 18  4  0  0  0  0
 19 20  1  0  0  0  0
 19 21  1  0  0  0  0
M  END
$$$$
