mmp9_6ela_crystal_ligand
  PyMOL3.1          3D                             0

 30 32  0  0  0  0  0  0  0  0999 V2000
   12.2050    7.9350   34.9400 C   0  0  0  0  0  0  0  0  0  0  0  0
   11.9970    6.6820   34.3820 C   0  0  0  0  0  0  0  0  0  0  0  0
   13.0290    5.7660   34.2860 C   0  0  0  0  0  0  0  0  0  0  0  0
   14.2850    6.1020   34.7410 C   0  0  0  0  0  0  0  0  0  0  0  0
   14.5030    7.3570   35.2940 C   0  0  0  0  0  0  0  0  0  0  0  0
   13.4690    8.2790   35.3950 C   0  0  0  0  0  0  0  0  0  0  0  0
   11.0560    8.9290   35.0290 C   0  0  0  0  0  0  0  0  0  0  0  0
   11.3100   10.2010   35.5120 C   0  0  0  0  0  0  0  0  0  0  0  0
   10.2940   11.1310   35.6020 C   0  0  0  0  0  0  0  0  0  0  0  0
    9.0220   10.7930   35.2040 C   0  0  0  0  0  0  0  0  0  0  0  0
    8.7500    9.5200   34.7240 C   0  0  0  0  0  0  0  0  0  0  0  0
    9.7730    8.5790   34.6270 C   0  0  0  0  0  0  0  0  0  0  0  0
    7.7500   12.0740   35.3420 S   0  0  0  0  0  0  0  0  0  0  0  0
   15.3140    5.1600   34.6250 O   0  0  0  0  0  0  0  0  0  0  0  0
   16.4550    5.4020   35.4170 C   0  0  0  0  0  0  0  0  0  0  0  0
    6.1480   11.2390   35.3140 C   0  0  0  0  0  0  0  0  0  0  0  0
    5.8400   10.3640   36.3480 C   0  0  0  0  0  0  0  0  0  0  0  0
    4.6220    9.7120   36.3620 C   0  0  0  0  0  0  0  0  0  0  0  0
    3.7320    9.9420   35.3270 C   0  0  0  0  0  0  0  0  0  0  0  0
    4.0420   10.8180   34.3010 C   0  0  0  0  0  0  0  0  0  0  0  0
    5.2640   11.4650   34.2700 C   0  0  0  0  0  0  0  0  0  0  0  0
    5.6320   12.4420   33.1330 C   0  0  0  0  0  0  0  0  0  0  0  0
    6.7640   11.9150   32.2520 C   0  0  0  0  0  0  0  0  0  0  0  0
    7.6980   12.6830   31.8680 O   0  0  0  0  0  0  0  0  0  0  0  0
    6.7390   10.7210   31.8930 O   0  0  0  0  0  0  0  0  0  0  0  0
    4.4300   12.7470   32.2230 C   0  0  0  0  0  0  0  0  0  0  0  0
    3.4200   13.6720   32.9040 C   0  0  0  0  0  0  0  0  0  0  0  0
    2.2190   13.9600   32.0020 C   0  0  0  0  0  0  0  0  0  0  0  0
    1.4180   14.8840   32.3020 O   0  0  0  0  0  0  0  0  0  0  0  0
    2.0370   13.2710   30.9600 O   0  0  0  0  0  0  0  0  0  0  0  0
  1  2  4  0  0  0  0
  1  7  1  0  0  0  0
  2  3  4  0  0  0  0
  3  4  4  0  0  0  0
  4  5  4  0  0  0  0
  4 14  1  0  0  0  0
  5  6  4  0  0  0  0
  1  6  4  0  0  0  0
  7  8  4  0  0  0  0
  8  9  4  0  0  0  0
  9 10  4  0  0  0  0
 10 11  4  0  0  0  0
 10 13  1  0  0  0  0
  7 12  4  0  0  0  0
 11 12  4  0  0  0  0
 14 15  1  0  0  0  0
 13 16  1  0  0  0  0
 16 17  4  0  0  0  0
 17 18  4  0  0  0  0
 18 19  4  0  0  0  0
 19 20  4  0  0  0  0
 20 21  4  0  0  0  0
 16 21  4  0  0  0  0
 21 22  1  0  0  0  0
 22 23  1  0  0  0  0
 22 26  1  0  0  0  0
 23 24  2  0  0  0  0
 23 25  1  0  0  0  0
 26 27  1  0  0  0  0
 27 28  1  0  0  0  0
 28 29  4  0  0  0  0
 28 30  4  0  0  0  0
M  END
$$$$
