ppard_7wgn_crystal_ligand
  PyMOL3.1          3D                             0

 65 68  0  0  0  0  0  0  0  0999 V2000
   -3.4350  -26.2470    9.3300 O   0  0  0  0  0  0  0  0  0  0  0  0
   -1.1940  -25.5810   15.0890 O   0  0  0  0  0  0  0  0  0  0  0  0
    3.8600  -28.9010   10.9560 O   0  0  0  0  0  0  0  0  0  0  0  0
    4.2850  -31.3380    9.5320 O   0  5  0  0  0  0  0  0  0  0  0  0
    2.1850  -31.6780    9.9790 O   0  0  0  0  0  0  0  0  0  0  0  0
   -0.8030  -24.3680   20.7990 O   0  0  0  0  0  0  0  0  0  0  0  0
   -1.8300  -26.5340   11.2050 N   0  0  0  0  0  0  0  0  0  0  0  0
   -4.2560  -25.8680   11.3500 N   0  0  0  0  0  0  0  0  0  0  0  0
   -1.4550  -26.1980   12.5790 C   0  0  0  0  0  0  0  0  0  0  0  0
   -0.9770  -27.2850   10.3010 C   0  0  0  0  0  0  0  0  0  0  0  0
   -1.8510  -24.7650   12.9330 C   0  0  0  0  0  0  0  0  0  0  0  0
    0.5060  -26.9510   10.3970 C   0  0  0  0  0  0  0  0  0  0  0  0
   -3.1310  -26.2090   10.6650 C   0  0  0  0  0  0  0  0  0  0  0  0
   -1.2870  -24.4190   14.3120 C   0  0  0  0  0  0  0  0  0  0  0  0
    1.4650  -28.1000   10.6300 C   0  0  0  0  0  0  0  0  0  0  0  0
    1.0180  -25.5230   10.2510 C   0  0  0  0  0  0  0  0  0  0  0  0
    2.9560  -27.8520   10.7380 C   0  0  0  0  0  0  0  0  0  0  0  0
   -4.7120  -25.9220    9.1890 C   0  0  0  0  0  0  0  0  0  0  0  0
   -5.2320  -25.6820   10.4540 C   0  0  0  0  0  0  0  0  0  0  0  0
    3.3800  -30.1360   11.4200 C   0  0  0  0  0  0  0  0  0  0  0  0
    2.5250  -25.2600   10.3530 C   0  0  0  0  0  0  0  0  0  0  0  0
    3.4890  -26.4280   10.5970 C   0  0  0  0  0  0  0  0  0  0  0  0
    4.3730  -30.6990   12.4300 C   0  0  0  0  0  0  0  0  0  0  0  0
   -5.6100  -25.7890    7.9170 C   0  0  0  0  0  0  0  0  0  0  0  0
   -6.7300  -25.2730   10.6220 C   0  0  0  0  0  0  0  0  0  0  0  0
   -1.1210  -25.3110   16.4550 C   0  0  0  0  0  0  0  0  0  0  0  0
   -7.0520  -25.3940    8.0670 C   0  0  0  0  0  0  0  0  0  0  0  0
   -7.6100  -25.1380    9.4120 C   0  0  0  0  0  0  0  0  0  0  0  0
    4.1490  -30.0350   13.7850 C   0  0  0  0  0  0  0  0  0  0  0  0
    3.2750  -31.1070   10.2440 C   0  0  0  0  0  0  0  0  0  0  0  0
   -0.0690  -24.3370   16.9680 C   0  0  0  0  0  0  0  0  0  0  0  0
   -2.0870  -25.9810   17.4220 C   0  0  0  0  0  0  0  0  0  0  0  0
    0.0200  -24.0300   18.4560 C   0  0  0  0  0  0  0  0  0  0  0  0
   -1.9960  -25.6720   18.9140 C   0  0  0  0  0  0  0  0  0  0  0  0
   -0.9420  -24.6950   19.4370 C   0  0  0  0  0  0  0  0  0  0  0  0
   -1.6520  -24.9200   21.7700 C   0  0  0  0  0  0  0  0  0  0  0  0
   -1.8990  -26.8090   13.1870 H   0  0  0  0  0  0  0  0  0  0  0  0
   -0.4950  -26.2940   12.6780 H   0  0  0  0  0  0  0  0  0  0  0  0
   -1.0900  -28.2300   10.4880 H   0  0  0  0  0  0  0  0  0  0  0  0
   -1.2700  -27.1150    9.3920 H   0  0  0  0  0  0  0  0  0  0  0  0
   -2.8180  -24.6900   12.9490 H   0  0  0  0  0  0  0  0  0  0  0  0
   -1.4890  -24.1550   12.2710 H   0  0  0  0  0  0  0  0  0  0  0  0
   -0.4050  -24.0270   14.2110 H   0  0  0  0  0  0  0  0  0  0  0  0
   -1.8740  -23.7840   14.7500 H   0  0  0  0  0  0  0  0  0  0  0  0
    1.1340  -28.9650   10.7170 H   0  0  0  0  0  0  0  0  0  0  0  0
    0.4260  -24.8220   10.1050 H   0  0  0  0  0  0  0  0  0  0  0  0
    2.5110  -30.0210   11.8360 H   0  0  0  0  0  0  0  0  0  0  0  0
    2.8530  -24.3930   10.2700 H   0  0  0  0  0  0  0  0  0  0  0  0
    4.4030  -26.2680   10.6590 H   0  0  0  0  0  0  0  0  0  0  0  0
    5.2770  -30.5210   12.1270 H   0  0  0  0  0  0  0  0  0  0  0  0
    4.2420  -31.6570   12.5130 H   0  0  0  0  0  0  0  0  0  0  0  0
   -5.2540  -25.9500    7.0730 H   0  0  0  0  0  0  0  0  0  0  0  0
   -7.0760  -25.1120   11.4700 H   0  0  0  0  0  0  0  0  0  0  0  0
   -7.5920  -25.3100    7.3150 H   0  0  0  0  0  0  0  0  0  0  0  0
   -8.5020  -24.8920    9.5090 H   0  0  0  0  0  0  0  0  0  0  0  0
    4.9520  -30.1210   14.3230 H   0  0  0  0  0  0  0  0  0  0  0  0
    3.4080  -30.4670   14.2380 H   0  0  0  0  0  0  0  0  0  0  0  0
    3.9460  -29.0960   13.6550 H   0  0  0  0  0  0  0  0  0  0  0  0
    0.5180  -23.9300   16.3720 H   0  0  0  0  0  0  0  0  0  0  0  0
   -2.7290  -26.5750   17.1050 H   0  0  0  0  0  0  0  0  0  0  0  0
    0.6630  -23.4360   18.7690 H   0  0  0  0  0  0  0  0  0  0  0  0
   -2.5840  -26.0800   19.5080 H   0  0  0  0  0  0  0  0  0  0  0  0
   -1.1220  -25.3790   22.4400 H   0  0  0  0  0  0  0  0  0  0  0  0
   -2.2570  -25.5510   21.3490 H   0  0  0  0  0  0  0  0  0  0  0  0
   -2.1650  -24.2120   22.1910 H   0  0  0  0  0  0  0  0  0  0  0  0
  7  9  1  0  0  0  0
  9 11  1  0  0  0  0
  9 37  1  0  0  0  0
  9 38  1  0  0  0  0
  7 10  1  0  0  0  0
 10 12  1  0  0  0  0
 10 39  1  0  0  0  0
 10 40  1  0  0  0  0
 11 14  1  0  0  0  0
 11 41  1  0  0  0  0
 11 42  1  0  0  0  0
 12 15  4  0  0  0  0
 12 16  4  0  0  0  0
  1 13  4  0  0  0  0
  7 13  1  0  0  0  0
  8 13  4  0  0  0  0
  2 14  1  0  0  0  0
 14 43  1  0  0  0  0
 14 44  1  0  0  0  0
 15 17  4  0  0  0  0
 15 45  1  0  0  0  0
 16 21  4  0  0  0  0
 16 46  1  0  0  0  0
  3 17  1  0  0  0  0
 17 22  4  0  0  0  0
  1 18  4  0  0  0  0
 18 19  4  0  0  0  0
 18 24  4  0  0  0  0
  8 19  4  0  0  0  0
 19 25  4  0  0  0  0
  3 20  1  0  0  0  0
 20 23  1  0  0  0  0
 20 30  1  0  0  0  0
 20 47  1  0  0  0  0
 21 22  4  0  0  0  0
 21 48  1  0  0  0  0
 22 49  1  0  0  0  0
 23 29  1  0  0  0  0
 23 50  1  0  0  0  0
 23 51  1  0  0  0  0
 24 27  4  0  0  0  0
 24 52  1  0  0  0  0
 25 28  4  0  0  0  0
 25 53  1  0  0  0  0
  2 26  1  0  0  0  0
 26 31  4  0  0  0  0
 26 32  4  0  0  0  0
 27 28  4  0  0  0  0
 27 54  1  0  0  0  0
 28 55  1  0  0  0  0
 29 56  1  0  0  0  0
 29 57  1  0  0  0  0
 29 58  1  0  0  0  0
  4 30  4  0  0  0  0
  5 30  4  0  0  0  0
 31 33  4  0  0  0  0
 31 59  1  0  0  0  0
 32 34  4  0  0  0  0
 32 60  1  0  0  0  0
 33 35  4  0  0  0  0
 33 61  1  0  0  0  0
 34 35  4  0  0  0  0
 34 62  1  0  0  0  0
  6 35  1  0  0  0  0
  6 36  1  0  0  0  0
 36 63  1  0  0  0  0
 36 64  1  0  0  0  0
 36 65  1  0  0  0  0
M  END
$$$$
