pparg_8aty_crystal_ligand
  PyMOL3.1          3D                             0

 46 50  0  0  0  0  0  0  0  0999 V2000
    2.9350   40.3170   70.4420 N   0  0  0  0  0  0  0  0  0  0  0  0
    3.8220   41.1520   69.9570 C   0  0  0  0  0  0  0  0  0  0  0  0
    0.2450   42.3420   73.2410 O   0  0  0  0  0  0  0  0  0  0  0  0
    4.2690   40.8780   68.2970 Cl  0  0  0  0  0  0  0  0  0  0  0  0
    2.5120   40.6320   71.6680 C   0  0  0  0  0  0  0  0  0  0  0  0
    2.9010   41.6520   72.4600 N   0  0  0  0  0  0  0  0  0  0  0  0
   -1.3920   40.8670   73.4040 O   0  0  0  0  0  0  0  0  0  0  0  0
    0.8430   40.1450   73.8330 C   0  0  0  0  0  0  0  0  0  0  0  0
    4.4370   43.3810   72.6460 N   0  0  0  0  0  0  0  0  0  0  0  0
   -0.2270   41.1470   73.4920 C   0  0  0  0  0  0  0  0  0  0  0  0
    3.8240   42.4370   71.9040 C   0  0  0  0  0  0  0  0  0  0  0  0
    5.2410   44.4410   72.5000 C   0  0  0  0  0  0  0  0  0  0  0  0
    6.6050   44.1340   72.5360 C   0  0  0  0  0  0  0  0  0  0  0  0
    7.0610   42.7260   72.8360 C   0  0  0  0  0  0  0  0  0  0  0  0
    8.5630   42.5660   72.9910 C   0  0  0  0  0  0  0  0  0  0  0  0
    9.3330   43.3960   72.0170 C   0  0  0  0  0  0  0  0  0  0  0  0
    9.0080   44.8670   72.2180 C   0  0  0  0  0  0  0  0  0  0  0  0
    7.5220   45.1320   72.2000 C   0  0  0  0  0  0  0  0  0  0  0  0
    7.0560   46.3960   71.8570 C   0  0  0  0  0  0  0  0  0  0  0  0
    5.7070   46.6720   71.8020 C   0  0  0  0  0  0  0  0  0  0  0  0
    4.7860   45.6960   72.1130 C   0  0  0  0  0  0  0  0  0  0  0  0
    4.3430   42.2310   70.6190 C   0  0  0  0  0  0  0  0  0  0  0  0
    1.3600   39.4460   72.2100 S   0  0  0  0  0  0  0  0  0  0  0  0
   10.5180   39.6520   77.9870 N   0  0  0  0  0  0  0  0  0  0  0  0
   11.2020   38.6390   78.5030 C   0  0  0  0  0  0  0  0  0  0  0  0
   10.9130   43.6690   77.9210 O   0  0  0  0  0  0  0  0  0  0  0  0
   12.2760   37.8250   77.3970 Cl  0  0  0  0  0  0  0  0  0  0  0  0
    9.6710   40.2310   78.8360 C   0  0  0  0  0  0  0  0  0  0  0  0
    9.4220   39.8780   80.1030 N   0  0  0  0  0  0  0  0  0  0  0  0
   10.2370   44.2790   75.8950 O   0  0  0  0  0  0  0  0  0  0  0  0
    9.7280   42.0560   76.7260 C   0  0  0  0  0  0  0  0  0  0  0  0
    9.8920   38.5360   81.8700 N   0  0  0  0  0  0  0  0  0  0  0  0
   10.3110   43.4470   76.7880 C   0  0  0  0  0  0  0  0  0  0  0  0
   10.1530   38.8590   80.5730 C   0  0  0  0  0  0  0  0  0  0  0  0
    8.8950   38.9050   82.7670 C   0  0  0  0  0  0  0  0  0  0  0  0
    9.3910   39.4010   83.9910 C   0  0  0  0  0  0  0  0  0  0  0  0
   10.8630   39.2700   84.3320 C   0  0  0  0  0  0  0  0  0  0  0  0
   11.3330   40.3040   85.3320 C   0  0  0  0  0  0  0  0  0  0  0  0
   10.3990   40.3250   86.5220 C   0  0  0  0  0  0  0  0  0  0  0  0
    8.9980   40.7550   86.1070 C   0  0  0  0  0  0  0  0  0  0  0  0
    8.5030   40.0720   84.8540 C   0  0  0  0  0  0  0  0  0  0  0  0
    7.1550   40.1730   84.5060 C   0  0  0  0  0  0  0  0  0  0  0  0
    6.6890   39.6690   83.3030 C   0  0  0  0  0  0  0  0  0  0  0  0
    7.5610   39.0660   82.4130 C   0  0  0  0  0  0  0  0  0  0  0  0
   11.1050   38.1740   79.8040 C   0  0  0  0  0  0  0  0  0  0  0  0
    8.9090   41.7310   78.3160 S   0  0  0  0  0  0  0  0  0  0  0  0
  1  2  4  0  0  0  0
  2  4  1  0  0  0  0
  1  5  4  0  0  0  0
  5  6  4  0  0  0  0
  6 11  4  0  0  0  0
  7 10  4  0  0  0  0
  8 10  1  0  0  0  0
  8 23  1  0  0  0  0
  3 10  4  0  0  0  0
  9 11  1  0  0  0  0
 11 22  4  0  0  0  0
  9 12  1  0  0  0  0
 12 13  4  0  0  0  0
 12 21  4  0  0  0  0
 13 14  1  0  0  0  0
 13 18  4  0  0  0  0
 14 15  1  0  0  0  0
 15 16  1  0  0  0  0
 16 17  1  0  0  0  0
 17 18  1  0  0  0  0
 18 19  4  0  0  0  0
 19 20  4  0  0  0  0
 20 21  4  0  0  0  0
  2 22  4  0  0  0  0
  5 23  1  0  0  0  0
 24 25  4  0  0  0  0
 25 27  1  0  0  0  0
 24 28  4  0  0  0  0
 28 29  4  0  0  0  0
 29 34  4  0  0  0  0
 30 33  4  0  0  0  0
 31 33  1  0  0  0  0
 31 46  1  0  0  0  0
 26 33  4  0  0  0  0
 32 34  1  0  0  0  0
 34 45  4  0  0  0  0
 32 35  1  0  0  0  0
 35 36  4  0  0  0  0
 35 44  4  0  0  0  0
 36 37  1  0  0  0  0
 36 41  4  0  0  0  0
 37 38  1  0  0  0  0
 38 39  1  0  0  0  0
 39 40  1  0  0  0  0
 40 41  1  0  0  0  0
 41 42  4  0  0  0  0
 42 43  4  0  0  0  0
 43 44  4  0  0  0  0
 25 45  4  0  0  0  0
 28 46  1  0  0  0  0
M  END
$$$$
