pparg_9f7w_crystal_ligand_2OH
  PyMOL3.1          3D                             0

 33 34  0  0  0  0  0  0  0  0999 V2000
   46.8470    6.2910    2.5170 C   0  0  0  0  0  0  0  0  0  0  0  0
   47.2070    7.4010    6.5080 O   0  0  0  0  0  0  0  0  0  0  0  0
   46.7320    5.8650    1.0460 C   0  0  0  0  0  0  0  0  0  0  0  0
   48.0400   10.2260   -2.3720 O   0  0  0  0  0  0  0  0  0  0  0  0
   45.2940    5.4200    0.7280 C   0  0  0  0  0  0  0  0  0  0  0  0
   47.1250    7.0460    0.1470 C   0  0  0  0  0  0  0  0  0  0  0  0
   47.6580    4.6680    0.7740 C   0  0  0  0  0  0  0  0  0  0  0  0
   45.7310    6.3340    3.3460 C   0  0  0  0  0  0  0  0  0  0  0  0
   45.8430    6.7010    4.6760 C   0  0  0  0  0  0  0  0  0  0  0  0
   47.0830    7.0330    5.2000 C   0  0  0  0  0  0  0  0  0  0  0  0
   48.2050    6.9970    4.3860 C   0  0  0  0  0  0  0  0  0  0  0  0
   48.0820    6.6310    3.0570 C   0  0  0  0  0  0  0  0  0  0  0  0
   46.8370    8.3550    0.5180 C   0  0  0  0  0  0  0  0  0  0  0  0
   47.1490    9.4180   -0.3110 C   0  0  0  0  0  0  0  0  0  0  0  0
   47.7580    9.1850   -1.5340 C   0  0  0  0  0  0  0  0  0  0  0  0
   48.0640    7.8860   -1.9130 C   0  0  0  0  0  0  0  0  0  0  0  0
   47.7500    6.8310   -1.0750 C   0  0  0  0  0  0  0  0  0  0  0  0
   48.1620    7.6030    6.6860 H   0  0  0  0  0  0  0  0  0  0  0  0
   48.4710    9.8590   -3.1880 H   0  0  0  0  0  0  0  0  0  0  0  0
   44.7510    6.0770    2.9480 H   0  0  0  0  0  0  0  0  0  0  0  0
   44.9470    6.7220    5.2950 H   0  0  0  0  0  0  0  0  0  0  0  0
   49.1790    7.2560    4.7960 H   0  0  0  0  0  0  0  0  0  0  0  0
   48.9860    6.6190    2.4500 H   0  0  0  0  0  0  0  0  0  0  0  0
   46.3590    8.5810    1.4700 H   0  0  0  0  0  0  0  0  0  0  0  0
   46.9200   10.4390   -0.0100 H   0  0  0  0  0  0  0  0  0  0  0  0
   48.5510    7.6770   -2.8650 H   0  0  0  0  0  0  0  0  0  0  0  0
   47.9990    5.8160   -1.3840 H   0  0  0  0  0  0  0  0  0  0  0  0
   45.1980    5.0720   -0.2990 H   0  0  0  0  0  0  0  0  0  0  0  0
   44.5830    6.2340    0.8600 H   0  0  0  0  0  0  0  0  0  0  0  0
   44.9730    4.6050    1.3750 H   0  0  0  0  0  0  0  0  0  0  0  0
   47.5100    4.2680   -0.2280 H   0  0  0  0  0  0  0  0  0  0  0  0
   47.4790    3.8560    1.4770 H   0  0  0  0  0  0  0  0  0  0  0  0
   48.7070    4.9470    0.8600 H   0  0  0  0  0  0  0  0  0  0  0  0
  1  8  4  0  0  0  0
  1 12  4  0  0  0  0
  2 18  1  0  0  0  0
  1  3  1  0  0  0  0
  3  5  1  0  0  0  0
  3  7  1  0  0  0  0
  4 15  1  0  0  0  0
  4 19  1  0  0  0  0
  5 28  1  0  0  0  0
  5 29  1  0  0  0  0
  5 30  1  0  0  0  0
  3  6  1  0  0  0  0
  7 31  1  0  0  0  0
  7 32  1  0  0  0  0
  7 33  1  0  0  0  0
  8  9  4  0  0  0  0
  8 20  1  0  0  0  0
  9 10  4  0  0  0  0
  9 21  1  0  0  0  0
  2 10  1  0  0  0  0
 10 11  4  0  0  0  0
 11 22  1  0  0  0  0
 11 12  4  0  0  0  0
 12 23  1  0  0  0  0
  6 13  4  0  0  0  0
 13 24  1  0  0  0  0
 13 14  4  0  0  0  0
 14 25  1  0  0  0  0
 14 15  4  0  0  0  0
 15 16  4  0  0  0  0
 16 17  4  0  0  0  0
 16 26  1  0  0  0  0
  6 17  4  0  0  0  0
 17 27  1  0  0  0  0
M  END
$$$$
