obj01
  PyMOL3.1          3D                             0

 65 68  0  0  0  0  0  0  0  0999 V2000
    7.5210    0.7620   27.7990 O   0  0  0  0  0  0  0  0  0  0  0  0
    4.5350    3.3550   33.0790 O   0  0  0  0  0  0  0  0  0  0  0  0
    0.7770   -2.4420   28.6020 O   0  0  0  0  0  0  0  0  0  0  0  0
    0.1530   -0.2060   26.1770 O   0  5  0  0  0  0  0  0  0  0  0  0
   -0.4430   -2.3250   26.1540 O   0  0  0  0  0  0  0  0  0  0  0  0
    3.1590    4.9150   38.4770 O   0  0  0  0  0  0  0  0  0  0  0  0
    5.8230    0.6870   29.5340 N   0  0  0  0  0  0  0  0  0  0  0  0
    8.0750    1.5440   29.8290 N   0  0  0  0  0  0  0  0  0  0  0  0
    5.5920    0.5660   30.9930 C   0  0  0  0  0  0  0  0  0  0  0  0
    4.8590    0.4820   28.4470 C   0  0  0  0  0  0  0  0  0  0  0  0
    5.2720    1.9640   31.4490 C   0  0  0  0  0  0  0  0  0  0  0  0
    4.2370   -0.8600   28.7140 C   0  0  0  0  0  0  0  0  0  0  0  0
    7.1130    0.9970   29.0820 C   0  0  0  0  0  0  0  0  0  0  0  0
    4.8190    1.9840   32.9060 C   0  0  0  0  0  0  0  0  0  0  0  0
    2.7880   -0.9620   28.4790 C   0  0  0  0  0  0  0  0  0  0  0  0
    5.0520   -2.0080   29.2340 C   0  0  0  0  0  0  0  0  0  0  0  0
    2.1380   -2.2550   28.7640 C   0  0  0  0  0  0  0  0  0  0  0  0
    8.7800    1.1600   27.7570 C   0  0  0  0  0  0  0  0  0  0  0  0
    9.1270    1.6580   29.0170 C   0  0  0  0  0  0  0  0  0  0  0  0
   -0.0400   -1.3420   28.2510 C   0  0  0  0  0  0  0  0  0  0  0  0
    4.3890   -3.3150   29.5380 C   0  0  0  0  0  0  0  0  0  0  0  0
    2.9190   -3.4320   29.2810 C   0  0  0  0  0  0  0  0  0  0  0  0
   -1.3840   -1.7430   28.7530 C   0  0  0  0  0  0  0  0  0  0  0  0
    9.7250    1.1260   26.5540 C   0  0  0  0  0  0  0  0  0  0  0  0
   10.5340    2.1730   29.2480 C   0  0  0  0  0  0  0  0  0  0  0  0
    4.1970    3.7190   34.3550 C   0  0  0  0  0  0  0  0  0  0  0  0
   11.1100    1.6420   26.7820 C   0  0  0  0  0  0  0  0  0  0  0  0
   11.4730    2.1560   28.1040 C   0  0  0  0  0  0  0  0  0  0  0  0
   -1.2420   -1.7800   30.2660 C   0  0  0  0  0  0  0  0  0  0  0  0
   -0.1150   -1.2750   26.7550 C   0  0  0  0  0  0  0  0  0  0  0  0
    4.4190    5.1660   34.7520 C   0  0  0  0  0  0  0  0  0  0  0  0
    3.6600    2.6840   35.3070 C   0  0  0  0  0  0  0  0  0  0  0  0
    4.0700    5.6090   36.1430 C   0  0  0  0  0  0  0  0  0  0  0  0
    3.3070    3.1460   36.7000 C   0  0  0  0  0  0  0  0  0  0  0  0
    3.5070    4.5910   37.1420 C   0  0  0  0  0  0  0  0  0  0  0  0
    3.3500    6.2350   38.9250 C   0  0  0  0  0  0  0  0  0  0  0  0
    4.8440   -0.0260   31.1680 H   0  0  0  0  0  0  0  0  0  0  0  0
    6.3910    0.2410   31.4360 H   0  0  0  0  0  0  0  0  0  0  0  0
    4.1810    1.1750   28.4640 H   0  0  0  0  0  0  0  0  0  0  0  0
    5.3140    0.4770   27.5910 H   0  0  0  0  0  0  0  0  0  0  0  0
    4.5650    2.3260   30.8920 H   0  0  0  0  0  0  0  0  0  0  0  0
    6.0630    2.5170   31.3560 H   0  0  0  0  0  0  0  0  0  0  0  0
    4.0240    1.4440   33.0330 H   0  0  0  0  0  0  0  0  0  0  0  0
    5.5340    1.7000   33.4960 H   0  0  0  0  0  0  0  0  0  0  0  0
    2.2970   -0.2330   28.1760 H   0  0  0  0  0  0  0  0  0  0  0  0
    5.9650   -1.9040   29.3750 H   0  0  0  0  0  0  0  0  0  0  0  0
    0.2690   -0.5110   28.6450 H   0  0  0  0  0  0  0  0  0  0  0  0
    4.8810   -4.0430   29.8410 H   0  0  0  0  0  0  0  0  0  0  0  0
    2.4820   -4.2340   29.4570 H   0  0  0  0  0  0  0  0  0  0  0  0
   -1.6220   -2.6200   28.4150 H   0  0  0  0  0  0  0  0  0  0  0  0
   -2.0500   -1.0880   28.4920 H   0  0  0  0  0  0  0  0  0  0  0  0
    9.4560    0.7910   25.7290 H   0  0  0  0  0  0  0  0  0  0  0  0
   10.7920    2.5100   30.0760 H   0  0  0  0  0  0  0  0  0  0  0  0
   11.7290    1.6510   26.0880 H   0  0  0  0  0  0  0  0  0  0  0  0
   12.3350    2.4810   28.2320 H   0  0  0  0  0  0  0  0  0  0  0  0
   -1.9400   -2.3390   30.6430 H   0  0  0  0  0  0  0  0  0  0  0  0
   -1.3220   -0.8800   30.6210 H   0  0  0  0  0  0  0  0  0  0  0  0
   -0.3740   -2.1440   30.5010 H   0  0  0  0  0  0  0  0  0  0  0  0
    4.7590    5.7750   34.1370 H   0  0  0  0  0  0  0  0  0  0  0  0
    3.5320    1.8020   35.0420 H   0  0  0  0  0  0  0  0  0  0  0  0
    4.1970    6.4940   36.3990 H   0  0  0  0  0  0  0  0  0  0  0  0
    2.9710    2.5290   37.3090 H   0  0  0  0  0  0  0  0  0  0  0  0
    3.6730    6.7810   38.1910 H   0  0  0  0  0  0  0  0  0  0  0  0
    2.5080    6.5920   39.2480 H   0  0  0  0  0  0  0  0  0  0  0  0
    4.0020    6.2410   39.6430 H   0  0  0  0  0  0  0  0  0  0  0  0
  7  9  1  0  0  0  0
  9 11  1  0  0  0  0
  9 37  1  0  0  0  0
  9 38  1  0  0  0  0
  7 10  1  0  0  0  0
 10 12  1  0  0  0  0
 10 39  1  0  0  0  0
 10 40  1  0  0  0  0
 11 14  1  0  0  0  0
 11 41  1  0  0  0  0
 11 42  1  0  0  0  0
 12 15  4  0  0  0  0
 12 16  4  0  0  0  0
  1 13  4  0  0  0  0
  7 13  1  0  0  0  0
  8 13  4  0  0  0  0
  2 14  1  0  0  0  0
 14 43  1  0  0  0  0
 14 44  1  0  0  0  0
 15 17  4  0  0  0  0
 15 45  1  0  0  0  0
 16 21  4  0  0  0  0
 16 46  1  0  0  0  0
  3 17  1  0  0  0  0
 17 22  4  0  0  0  0
  1 18  4  0  0  0  0
 18 19  4  0  0  0  0
 18 24  4  0  0  0  0
  8 19  4  0  0  0  0
 19 25  4  0  0  0  0
  3 20  1  0  0  0  0
 20 23  1  0  0  0  0
 20 30  1  0  0  0  0
 20 47  1  0  0  0  0
 21 22  4  0  0  0  0
 21 48  1  0  0  0  0
 22 49  1  0  0  0  0
 23 29  1  0  0  0  0
 23 50  1  0  0  0  0
 23 51  1  0  0  0  0
 24 27  4  0  0  0  0
 24 52  1  0  0  0  0
 25 28  4  0  0  0  0
 25 53  1  0  0  0  0
  2 26  1  0  0  0  0
 26 31  4  0  0  0  0
 26 32  4  0  0  0  0
 27 28  4  0  0  0  0
 27 54  1  0  0  0  0
 28 55  1  0  0  0  0
 29 56  1  0  0  0  0
 29 57  1  0  0  0  0
 29 58  1  0  0  0  0
  4 30  4  0  0  0  0
  5 30  4  0  0  0  0
 31 33  4  0  0  0  0
 31 59  1  0  0  0  0
 32 34  4  0  0  0  0
 32 60  1  0  0  0  0
 33 35  4  0  0  0  0
 33 61  1  0  0  0  0
 34 35  4  0  0  0  0
 34 62  1  0  0  0  0
  6 35  1  0  0  0  0
  6 36  1  0  0  0  0
 36 63  1  0  0  0  0
 36 64  1  0  0  0  0
 36 65  1  0  0  0  0
M  END
$$$$
