crystal_ligand
  PyMOL3.1          3D                             0

 36 37  0  0  0  0  0  0  0  0999 V2000
    4.0304    4.7614    9.7507 C   0  0  0  0  0  0  0  0  0  0  0  0
    6.5195    4.4026    8.2909 C   0  0  0  0  0  0  0  0  0  0  0  0
    8.2034    8.3694    9.1007 C   0  0  0  0  0  0  0  0  0  0  0  0
    6.3313    8.4481   10.5957 C   0  0  0  0  0  0  0  0  0  0  0  0
    4.7554    6.8281    4.4905 C   0  0  0  0  0  0  0  0  0  0  0  0
    6.9054    5.7731    4.3760 C   0  0  0  0  0  0  0  0  0  0  0  0
    7.5907    7.3470    8.3966 C   0  0  0  0  0  0  0  0  0  0  0  0
    5.7282    7.4249    9.8845 C   0  0  0  0  0  0  0  0  0  0  0  0
    4.7292    6.6130    5.8581 C   0  0  0  0  0  0  0  0  0  0  0  0
    6.8685    5.5631    5.7439 C   0  0  0  0  0  0  0  0  0  0  0  0
    4.2302    5.4735    8.4301 C   0  0  0  0  0  0  0  0  0  0  0  0
    7.5750    8.9202   10.2063 C   0  0  0  0  0  0  0  0  0  0  0  0
    5.8439    6.4026    3.7457 C   0  0  0  0  0  0  0  0  0  0  0  0
    6.3493    6.8544    8.7797 C   0  0  0  0  0  0  0  0  0  0  0  0
    5.7793    5.9722    6.5017 C   0  0  0  0  0  0  0  0  0  0  0  0
    5.7085    5.6795    8.0155 C   0  0  0  0  0  0  0  0  0  0  0  0
    8.1866    9.9151   10.9132 O   0  0  0  0  0  0  0  0  0  0  0  0
    5.8635    6.5891    2.3937 O   0  0  0  0  0  0  0  0  0  0  0  0
    3.0501    4.9721   10.1755 H   0  0  0  0  0  0  0  0  0  0  0  0
    4.7736    5.0654   10.4864 H   0  0  0  0  0  0  0  0  0  0  0  0
    4.1090    3.6810    9.6395 H   0  0  0  0  0  0  0  0  0  0  0  0
    6.1399    3.5591    7.7162 H   0  0  0  0  0  0  0  0  0  0  0  0
    6.4794    4.1257    9.3434 H   0  0  0  0  0  0  0  0  0  0  0  0
    7.5679    4.5331    8.0268 H   0  0  0  0  0  0  0  0  0  0  0  0
    9.1777    8.7264    8.7706 H   0  0  0  0  0  0  0  0  0  0  0  0
    5.8346    8.8855   11.4606 H   0  0  0  0  0  0  0  0  0  0  0  0
    3.9264    7.3299    3.9937 H   0  0  0  0  0  0  0  0  0  0  0  0
    7.7759    5.4366    3.8148 H   0  0  0  0  0  0  0  0  0  0  0  0
    8.0969    6.9269    7.5287 H   0  0  0  0  0  0  0  0  0  0  0  0
    4.7503    7.0766   10.2138 H   0  0  0  0  0  0  0  0  0  0  0  0
    3.8573    6.9641    6.4081 H   0  0  0  0  0  0  0  0  0  0  0  0
    7.7065    5.0696    6.2341 H   0  0  0  0  0  0  0  0  0  0  0  0
    3.7264    6.4379    8.4747 H   0  0  0  0  0  0  0  0  0  0  0  0
    3.7076    4.9183    7.6525 H   0  0  0  0  0  0  0  0  0  0  0  0
    9.0645   10.1044   10.4895 H   0  0  0  0  0  0  0  0  0  0  0  0
    5.0178    7.0368    2.1283 H   0  0  0  0  0  0  0  0  0  0  0  0
  3  7  2  0  0  0  0
  4  8  1  0  0  0  0
  5  9  1  0  0  0  0
  6 10  2  0  0  0  0
  1 11  1  0  0  0  0
  3 12  1  0  0  0  0
  4 12  2  0  0  0  0
  5 13  2  0  0  0  0
  6 13  1  0  0  0  0
  7 14  1  0  0  0  0
  8 14  2  0  0  0  0
  9 15  2  0  0  0  0
 10 15  1  0  0  0  0
  2 16  1  0  0  0  0
 11 16  1  0  0  0  0
 14 16  1  0  0  0  0
 15 16  1  0  0  0  0
 12 17  1  0  0  0  0
 13 18  1  0  0  0  0
  1 19  1  0  0  0  0
  1 20  1  0  0  0  0
  1 21  1  0  0  0  0
  2 22  1  0  0  0  0
  2 23  1  0  0  0  0
  2 24  1  0  0  0  0
  3 25  1  0  0  0  0
  4 26  1  0  0  0  0
  5 27  1  0  0  0  0
  6 28  1  0  0  0  0
  7 29  1  0  0  0  0
  8 30  1  0  0  0  0
  9 31  1  0  0  0  0
 10 32  1  0  0  0  0
 11 33  1  0  0  0  0
 11 34  1  0  0  0  0
 17 35  1  0  0  0  0
 18 36  1  0  0  0  0
M  END
$$$$
