ptges_5tl9_crystal_ligand_homo3mer
  PyMOL3.1          3D                             0

 36 40  0  0  0  0  0  0  0  0999 V2000
    7.9580  -15.4510   26.1890 N   0  0  0  0  0  0  0  0  0  0  0  0
    8.5940  -14.3020   28.3090 C   0  0  0  0  0  0  0  0  0  0  0  0
    9.6530  -15.8250   30.5750 O   0  0  0  0  0  0  0  0  0  0  0  0
    7.8030  -15.3850   29.0770 C   0  0  0  0  0  0  0  0  0  0  0  0
    8.3980  -14.3930   24.1360 N   0  0  0  0  0  0  0  0  0  0  0  0
    6.1520  -22.4590   33.2980 O   0  0  0  0  0  0  0  0  0  0  0  0
    7.6970  -16.6950   28.2760 C   0  0  0  0  0  0  0  0  0  0  0  0
    7.5070  -16.0150   31.3760 N   0  0  0  0  0  0  0  0  0  0  0  0
    7.2860  -24.1670   32.3880 O   0  0  0  0  0  0  0  0  0  0  0  0
    7.1400  -16.4600   26.8720 C   0  0  0  0  0  0  0  0  0  0  0  0
    8.0750  -14.1440   26.8760 C   0  0  0  0  0  0  0  0  0  0  0  0
    8.2940  -15.5450   24.8480 C   0  0  0  0  0  0  0  0  0  0  0  0
    8.5370  -16.7660   24.1970 C   0  0  0  0  0  0  0  0  0  0  0  0
    8.8780  -16.7920   22.8400 C   0  0  0  0  0  0  0  0  0  0  0  0
    8.9750  -15.5920   22.1240 C   0  0  0  0  0  0  0  0  0  0  0  0
    8.7220  -14.3800   22.8230 C   0  0  0  0  0  0  0  0  0  0  0  0
    8.8060  -13.1550   22.1240 C   0  0  0  0  0  0  0  0  0  0  0  0
    9.1480  -13.1480   20.7510 C   0  0  0  0  0  0  0  0  0  0  0  0
    9.4030  -14.3480   20.0770 C   0  0  0  0  0  0  0  0  0  0  0  0
    9.3180  -15.5690   20.7560 C   0  0  0  0  0  0  0  0  0  0  0  0
    8.5270  -11.8550   22.8400 C   0  0  0  0  0  0  0  0  0  0  0  0
    8.4430  -15.7480   30.4030 C   0  0  0  0  0  0  0  0  0  0  0  0
    7.8830  -16.4520   32.7200 C   0  0  0  0  0  0  0  0  0  0  0  0
    7.1370  -17.7420   33.1330 C   0  0  0  0  0  0  0  0  0  0  0  0
    6.7560  -18.6830   31.9880 C   0  0  0  0  0  0  0  0  0  0  0  0
    7.4870  -20.0230   31.9740 C   0  0  0  0  0  0  0  0  0  0  0  0
    7.0690  -20.9310   30.8270 C   0  0  0  0  0  0  0  0  0  0  0  0
    7.0430  -20.3850   29.5150 C   0  0  0  0  0  0  0  0  0  0  0  0
    6.6790  -21.1540   28.4010 C   0  0  0  0  0  0  0  0  0  0  0  0
    6.3320  -22.4940   28.5670 C   0  0  0  0  0  0  0  0  0  0  0  0
    6.3550  -23.0630   29.8470 C   0  0  0  0  0  0  0  0  0  0  0  0
    6.7220  -22.3070   30.9940 C   0  0  0  0  0  0  0  0  0  0  0  0
    6.7080  -23.0410   32.3220 C   0  0  0  0  0  0  0  0  0  0  0  0
    5.8930  -17.2570   33.8750 C   0  0  0  0  0  0  0  0  0  0  0  0
    6.1590  -15.8280   34.3350 C   0  0  0  0  0  0  0  0  0  0  0  0
    7.5330  -15.4390   33.8080 C   0  0  0  0  0  0  0  0  0  0  0  0
  2  4  1  0  0  0  0
  4  7  1  0  0  0  0
  1 10  1  0  0  0  0
  7 10  1  0  0  0  0
  1 11  1  0  0  0  0
  2 11  1  0  0  0  0
  1 12  1  0  0  0  0
  5 12  2  0  0  0  0
 12 13  1  0  0  0  0
 13 14  2  0  0  0  0
 14 15  1  0  0  0  0
  5 16  1  0  0  0  0
 15 16  1  0  0  0  0
 16 17  2  0  0  0  0
 17 18  1  0  0  0  0
 18 19  2  0  0  0  0
 15 20  2  0  0  0  0
 19 20  1  0  0  0  0
 17 21  1  0  0  0  0
  3 22  2  0  0  0  0
  4 22  1  0  0  0  0
  8 22  1  0  0  0  0
  8 23  1  0  0  0  0
 23 24  1  0  0  0  0
 24 25  1  0  0  0  0
 25 26  1  0  0  0  0
 26 27  1  0  0  0  0
 27 28  2  0  0  0  0
 28 29  1  0  0  0  0
 29 30  2  0  0  0  0
 30 31  1  0  0  0  0
 27 32  1  0  0  0  0
 31 32  2  0  0  0  0
  6 33  1  0  0  0  0
  9 33  2  0  0  0  0
 32 33  1  0  0  0  0
 24 34  1  0  0  0  0
 34 35  1  0  0  0  0
 23 36  1  0  0  0  0
 35 36  1  0  0  0  0
M  END
$$$$
