ptgs2_5ikr_crystal_ligand
  PyMOL3.1          3D                             0

 32 33  0  0  0  0  0  0  0  0999 V2000
   39.8100    1.9430   63.1160 C   0  0  0  0  0  0  0  0  0  0  0  0
   40.8840    1.1790   63.4710 C   0  0  0  0  0  0  0  0  0  0  0  0
   41.3870    0.2640   62.6180 C   0  0  0  0  0  0  0  0  0  0  0  0
   40.8470    0.0930   61.3930 C   0  0  0  0  0  0  0  0  0  0  0  0
   39.7830    0.8500   61.0260 C   0  0  0  0  0  0  0  0  0  0  0  0
   39.2530    1.7830   61.8760 C   0  0  0  0  0  0  0  0  0  0  0  0
   38.2960    2.6220   61.4940 N   0  0  0  0  0  0  0  0  0  0  0  0
   37.9420    3.0720   60.2970 C   0  0  0  0  0  0  0  0  0  0  0  0
   38.8170    3.0240   59.2710 C   0  0  0  0  0  0  0  0  0  0  0  0
   38.4700    3.3640   58.0160 C   0  0  0  0  0  0  0  0  0  0  0  0
   37.2130    3.7920   57.7670 C   0  0  0  0  0  0  0  0  0  0  0  0
   36.3310    3.8750   58.7840 C   0  0  0  0  0  0  0  0  0  0  0  0
   36.6640    3.5270   60.0620 C   0  0  0  0  0  0  0  0  0  0  0  0
   35.5760    3.6640   61.0880 C   0  0  0  0  0  0  0  0  0  0  0  0
   35.5800    3.2290   62.2100 O   0  0  0  0  0  0  0  0  0  0  0  0
   34.5530    4.1690   60.7920 O   0  0  0  0  0  0  0  0  0  0  0  0
   39.2970    2.9420   64.0680 C   0  0  0  0  0  0  0  0  0  0  0  0
   41.5310    1.3220   64.7920 C   0  0  0  0  0  0  0  0  0  0  0  0
   42.2390   -0.3160   62.9100 H   0  0  0  0  0  0  0  0  0  0  0  0
   41.2620   -0.6230   60.7080 H   0  0  0  0  0  0  0  0  0  0  0  0
   39.3520    0.7190   60.0490 H   0  0  0  0  0  0  0  0  0  0  0  0
   37.8270    2.9650   62.1400 H   0  0  0  0  0  0  0  0  0  0  0  0
   39.8210    2.6800   59.4260 H   0  0  0  0  0  0  0  0  0  0  0  0
   39.1820    3.2720   57.2140 H   0  0  0  0  0  0  0  0  0  0  0  0
   36.9240    4.0510   56.7630 H   0  0  0  0  0  0  0  0  0  0  0  0
   35.3360    4.2170   58.5800 H   0  0  0  0  0  0  0  0  0  0  0  0
   38.9110    3.7540   63.5250 H   0  0  0  0  0  0  0  0  0  0  0  0
   40.0830    3.2770   64.6780 H   0  0  0  0  0  0  0  0  0  0  0  0
   38.5380    2.5180   64.6610 H   0  0  0  0  0  0  0  0  0  0  0  0
   41.8710    0.3790   65.1110 H   0  0  0  0  0  0  0  0  0  0  0  0
   42.3450    1.9850   64.7180 H   0  0  0  0  0  0  0  0  0  0  0  0
   40.8340    1.6940   65.4870 H   0  0  0  0  0  0  0  0  0  0  0  0
  1  2  4  0  0  0  0
  1 17  1  0  0  0  0
  2 18  1  0  0  0  0
  2  3  4  0  0  0  0
  3 19  1  0  0  0  0
  3  4  4  0  0  0  0
  4 20  1  0  0  0  0
  4  5  4  0  0  0  0
  5 21  1  0  0  0  0
  1  6  4  0  0  0  0
  5  6  4  0  0  0  0
  6  7  1  0  0  0  0
  7 22  1  0  0  0  0
  7  8  1  0  0  0  0
  8  9  4  0  0  0  0
  9 23  1  0  0  0  0
  9 10  4  0  0  0  0
 10 24  1  0  0  0  0
 10 11  4  0  0  0  0
 11 25  1  0  0  0  0
 11 12  4  0  0  0  0
 12 26  1  0  0  0  0
  8 13  4  0  0  0  0
 12 13  4  0  0  0  0
 13 14  1  0  0  0  0
 14 15  4  0  0  0  0
 14 16  4  0  0  0  0
 17 27  1  0  0  0  0
 17 28  1  0  0  0  0
 17 29  1  0  0  0  0
 18 30  1  0  0  0  0
 18 31  1  0  0  0  0
 18 32  1  0  0  0  0
M  END
$$$$
