mmp2_crystal_ligand


 88 90  0  0  0  0  0  0  0  0999 V2000
   51.5126  -53.6693   21.9982 C   0  0  0  0  0  0  0  0  0  0  0  0
   51.7671  -54.9290   21.1710 C   0  0  0  0  0  0  0  0  0  0  0  0
   51.1822  -55.0677   20.1440 O   0  0  0  0  0  0  0  0  0  0  0  0
   52.6511  -55.8195   21.6269 N   0  0  0  0  0  0  0  0  0  0  0  0
   53.0234  -55.6124   22.5145 H   0  0  0  0  0  0  0  0  0  0  0  0
   53.1558  -57.0480   21.0265 C   0  0  0  0  0  0  0  0  0  0  0  0
   51.9721  -57.9575   20.8794 C   0  0  0  0  0  0  0  0  0  0  0  0
   51.3629  -58.2922   21.8694 O   0  0  0  0  0  0  0  0  0  0  0  0
   51.6454  -58.2655   19.6228 N   0  0  0  0  0  0  0  0  0  0  0  0
   52.2385  -57.9653   18.8965 H   0  0  0  0  0  0  0  0  0  0  0  0
   50.4739  -59.0113   19.2821 C   0  0  0  0  0  0  0  0  0  0  0  0
   50.6453  -60.1873   18.3533 C   0  0  0  0  0  0  0  0  0  0  0  0
   51.4454  -60.0896   17.4511 O   0  0  0  0  0  0  0  0  0  0  0  0
   49.8537  -61.2688   18.5874 N   0  0  0  0  0  0  0  0  0  0  0  0
   48.8709  -61.3395   19.6724 C   0  0  0  0  0  0  0  0  0  0  0  0
   49.9391  -62.4220   17.6855 C   0  0  0  0  0  0  0  0  0  0  0  0
   50.3909  -63.6257   18.4344 C   0  0  0  0  0  0  0  0  0  0  0  0
   49.6250  -64.2519   19.1608 O   0  0  0  0  0  0  0  0  0  0  0  0
   51.6322  -64.0635   18.2141 N   0  0  0  0  0  0  0  0  0  0  0  0
   52.1459  -65.2554   18.9113 C   0  0  0  0  0  0  0  0  0  0  0  0
   53.3184  -65.6975   18.0770 C   0  0  0  0  0  0  0  0  0  0  0  0
   53.8818  -64.3763   17.5533 C   0  0  0  0  0  0  0  0  0  0  0  0
   52.6542  -63.4518   17.3875 C   0  0  0  0  0  0  0  0  0  0  0  0
   52.6236  -64.7611   20.3051 C   0  0  0  0  0  0  0  0  0  0  0  0
   51.8744  -65.5570   21.3522 C   0  0  0  0  0  0  0  0  0  0  0  0
   51.4205  -66.7116   21.1260 O   0  0  0  0  0  0  0  0  0  0  0  0
   51.7332  -64.8861   22.5103 N   0  0  0  0  0  0  0  0  0  0  0  0
   52.1186  -63.9854   22.6075 H   0  0  0  0  0  0  0  0  0  0  0  0
   51.2447  -65.2960   23.2602 H   0  0  0  0  0  0  0  0  0  0  0  0
   50.8391  -62.1057   16.4971 C   0  0  0  0  0  0  0  0  0  0  0  0
   50.0580  -62.2448   15.1880 C   0  0  0  0  0  0  0  0  0  0  0  0
   51.0418  -62.4685   14.0545 C   0  0  0  0  0  0  0  0  0  0  0  0
   51.6119  -61.5017   13.5671 O   0  0  0  0  0  0  0  0  0  0  0  0
   51.2714  -63.6024   13.6008 O   0  0  0  0  0  0  0  0  0  0  0  0
   51.4461  -60.6422   13.9016 H   0  0  0  0  0  0  0  0  0  0  0  0
   49.5772  -58.0309   18.5308 C   0  0  0  0  0  0  0  0  0  0  0  0
   48.1230  -57.9877   19.0093 C   0  0  0  0  0  0  0  0  0  0  0  0
   48.0739  -57.7974   20.5015 C   0  0  0  0  0  0  0  0  0  0  0  0
   47.3461  -56.8931   18.2717 C   0  0  0  0  0  0  0  0  0  0  0  0
   54.2607  -57.6432   21.8524 C   0  0  0  0  0  0  0  0  0  0  0  0
   54.1861  -57.4284   23.3614 C   0  0  0  0  0  0  0  0  0  0  0  0
   53.7034  -58.6214   24.0623 N   0  0  0  0  0  0  0  0  0  0  0  0
   52.7613  -58.8460   23.7422 H   0  0  0  0  0  0  0  0  0  0  0  0
   53.6877  -58.4428   25.0665 H   0  0  0  0  0  0  0  0  0  0  0  0
   51.6134  -54.2388   24.3302 C   0  0  0  0  0  0  0  0  0  0  0  0
   52.8514  -54.3397   24.2446 O   0  0  0  0  0  0  0  0  0  0  0  0
   50.8442  -53.8632   23.2842 N   0  0  0  0  0  0  0  0  0  0  0  0
   49.8744  -53.7258   23.3839 H   0  0  0  0  0  0  0  0  0  0  0  0
   50.9350  -54.4992   25.6390 C   0  0  0  0  0  0  0  0  0  0  0  0
   51.6418  -52.9177   27.3461 C   0  0  0  0  0  0  0  0  0  0  0  0
   52.7438  -53.4065   27.5543 O   0  0  0  0  0  0  0  0  0  0  0  0
   50.7357  -53.3086   26.4281 N   0  0  0  0  0  0  0  0  0  0  0  0
   49.9220  -52.7710   26.2936 H   0  0  0  0  0  0  0  0  0  0  0  0
   51.2577  -51.6837   28.1241 C   0  0  0  0  0  0  0  0  0  0  0  0
   52.4170  -50.6530   27.9986 C   0  0  0  0  0  0  0  0  0  0  0  0
   51.8691  -49.2900   27.4801 C   0  0  0  0  0  0  0  0  0  0  0  0
   51.9708  -49.1127   25.9722 C   0  0  0  0  0  0  0  0  0  0  0  0
   54.3332  -48.9316   25.2202 C   0  0  0  0  0  0  0  0  0  0  0  0
   54.5417  -50.1383   24.9790 O   0  0  0  0  0  0  0  0  0  0  0  0
   53.1866  -48.3491   25.6585 N   0  0  0  0  0  0  0  0  0  0  0  0
   53.1695  -47.3712   25.7709 H   0  0  0  0  0  0  0  0  0  0  0  0
   55.4938  -48.0061   24.9202 C   0  0  0  0  0  0  0  0  0  0  0  0
   56.7177  -48.1490   25.4999 C   0  0  0  0  0  0  0  0  0  0  0  0
   57.7180  -47.2302   25.1664 C   0  0  0  0  0  0  0  0  0  0  0  0
   57.5074  -46.1907   24.2212 C   0  0  0  0  0  0  0  0  0  0  0  0
   56.2961  -46.0846   23.6503 C   0  0  0  0  0  0  0  0  0  0  0  0
   55.2907  -46.9895   23.9785 C   0  0  0  0  0  0  0  0  0  0  0  0
   58.4552  -45.2644   23.9030 O   0  0  0  0  0  0  0  0  0  0  0  0
   59.7302  -45.2962   24.4428 C   0  0  0  0  0  0  0  0  0  0  0  0
   60.1104  -46.3882   25.2441 C   0  0  0  0  0  0  0  0  0  0  0  0
   61.3710  -46.4234   25.8389 C   0  0  0  0  0  0  0  0  0  0  0  0
   62.2833  -45.4186   25.5942 C   0  0  0  0  0  0  0  0  0  0  0  0
   61.9347  -44.3323   24.7918 C   0  0  0  0  0  0  0  0  0  0  0  0
   60.6539  -44.2417   24.2227 C   0  0  0  0  0  0  0  0  0  0  0  0
   63.6550  -45.4719   26.2393 C   0  0  0  0  0  0  0  0  0  0  0  0
   64.0123  -46.4703   27.0726 N   0  0  0  0  0  0  0  0  0  0  0  0
   64.4263  -44.5823   25.9589 O   0  0  0  0  0  0  0  0  0  0  0  0
   63.3704  -47.1849   27.2883 H   0  0  0  0  0  0  0  0  0  0  0  0
   64.9150  -46.4845   27.4652 H   0  0  0  0  0  0  0  0  0  0  0  0
   49.5143  -55.1729   25.4789 C   0  0  0  0  0  0  0  0  0  0  0  0
   49.6238  -56.6095   24.9714 C   0  0  0  0  0  0  0  0  0  0  0  0
   48.7810  -57.6705   25.7189 C   0  0  0  0  0  0  0  0  0  0  0  0
   47.5512  -57.5636   25.4841 O   0  0  0  0  0  0  0  0  0  0  0  0
   49.2493  -58.5964   26.4936 O   0  0  0  0  0  0  0  0  0  0  0  0
   52.7761  -52.8560   22.2767 C   0  0  0  0  0  0  0  0  0  0  0  0
   53.0669  -51.8601   21.1297 C   0  0  0  0  0  0  0  0  0  0  0  0
   53.3965  -50.7109   21.4676 O   0  0  0  0  0  0  0  0  0  0  0  0
   53.0153  -52.1839   19.8965 O   0  0  0  0  0  0  0  0  0  0  0  0
 58 62  1  0
 58 60  1  0
 62 63  2  0
 63 64  1  0
 64 65  2  0
 69 70  2  0
 69 74  1  0
 69 68  1  0
 70 71  1  0
 71 72  2  0
 72 73  1  0
 73 74  2  0
 72 75  1  0
 75 76  1  0
 75 77  2  0
 65 66  1  0
 62 67  1  0
 66 67  2  0
 58 59  2  0
 65 68  1  0
 54 50  1  0
 54 55  1  0
 50 51  2  0
 50 52  1  0
 55 56  1  0
 56 57  1  0
 60 57  1  0
 52 49  1  0
 49 45  1  0
 49 80  1  0
 45 46  2  0
 45 47  1  0
 80 81  1  0
 81 82  1  0
 82 83  2  0
 82 84  1  0
 47  1  1  0
  1  2  1  0
  1 85  1  0
  2  3  2  0
  2  4  1  0
 85 86  1  0
 86 87  2  0
 86 88  1  0
  4  6  1  0
  6  7  1  0
  6 40  1  0
  7  8  2  0
  7  9  1  0
 40 41  1  0
 41 42  1  0
  9 11  1  0
 11 12  1  0
 11 36  1  0
 12 13  2  0
 12 14  1  0
 36 37  1  0
 37 38  1  0
 37 39  1  0
 14 16  1  0
 16 17  1  0
 16 30  1  0
 17 18  2  0
 17 19  1  0
 30 31  1  0
 31 32  1  0
 32 33  1  0
 32 34  2  0
 14 15  1  0
 24 20  1  0
 24 25  1  0
 25 26  2  0
 25 27  1  0
 19 20  1  0
 20 21  1  0
 21 22  1  0
 22 23  1  0
 19 23  1  0
 76 78  1  0
 76 79  1  0
 60 61  1  0
 52 53  1  0
 47 48  1  0
  4  5  1  0
 42 43  1  0
 42 44  1  0
  9 10  1  0
 33 35  1  0
 27 28  1  0
 27 29  1  0
M  CHG 1  84  -1
M  CHG 1  88  -1
M  END
> <minimizedAffinity>
-9.36167

> <CNNscore>
0.7665784955

> <CNNaffinity>
8.7929277420

> <CNN_VS>
6.7404694557

> <CNNaffinity_variance>
2.7050380707

$$$$
mmp2_crystal_ligand


 88 90  0  0  0  0  0  0  0  0999 V2000
   49.5657  -58.7560   19.4443 C   0  0  0  0  0  0  0  0  0  0  0  0
   49.6236  -60.2759   19.2949 C   0  0  0  0  0  0  0  0  0  0  0  0
   49.2967  -60.9549   20.2159 O   0  0  0  0  0  0  0  0  0  0  0  0
   50.0245  -60.7838   18.1272 N   0  0  0  0  0  0  0  0  0  0  0  0
   50.3195  -60.1153   17.4674 H   0  0  0  0  0  0  0  0  0  0  0  0
   50.0971  -62.1654   17.6686 C   0  0  0  0  0  0  0  0  0  0  0  0
   50.7247  -62.1208   16.3069 C   0  0  0  0  0  0  0  0  0  0  0  0
   51.1084  -61.0590   15.8725 O   0  0  0  0  0  0  0  0  0  0  0  0
   50.8727  -63.3054   15.7108 N   0  0  0  0  0  0  0  0  0  0  0  0
   50.4870  -64.1006   16.1445 H   0  0  0  0  0  0  0  0  0  0  0  0
   51.5655  -63.4734   14.4712 C   0  0  0  0  0  0  0  0  0  0  0  0
   51.1456  -64.6245   13.5917 C   0  0  0  0  0  0  0  0  0  0  0  0
   50.7802  -65.6466   14.1259 O   0  0  0  0  0  0  0  0  0  0  0  0
   51.2415  -64.4311   12.2484 N   0  0  0  0  0  0  0  0  0  0  0  0
   51.7199  -63.1884   11.6362 C   0  0  0  0  0  0  0  0  0  0  0  0
   50.8964  -65.5330   11.3442 C   0  0  0  0  0  0  0  0  0  0  0  0
   51.8048  -65.5324   10.1658 C   0  0  0  0  0  0  0  0  0  0  0  0
   51.4442  -65.0871    9.0804 O   0  0  0  0  0  0  0  0  0  0  0  0
   53.0616  -65.9411   10.3512 N   0  0  0  0  0  0  0  0  0  0  0  0
   54.0213  -65.9583    9.2335 C   0  0  0  0  0  0  0  0  0  0  0  0
   55.3698  -65.9928    9.9020 C   0  0  0  0  0  0  0  0  0  0  0  0
   55.1042  -66.8149   11.1633 C   0  0  0  0  0  0  0  0  0  0  0  0
   53.6476  -66.4844   11.5610 C   0  0  0  0  0  0  0  0  0  0  0  0
   53.7586  -67.2840    8.4664 C   0  0  0  0  0  0  0  0  0  0  0  0
   54.6965  -67.3167    7.2788 C   0  0  0  0  0  0  0  0  0  0  0  0
   54.7500  -66.3816    6.4346 O   0  0  0  0  0  0  0  0  0  0  0  0
   55.4234  -68.4481    7.2236 N   0  0  0  0  0  0  0  0  0  0  0  0
   55.3232  -69.1323    7.9243 H   0  0  0  0  0  0  0  0  0  0  0  0
   56.0553  -68.5914    6.4824 H   0  0  0  0  0  0  0  0  0  0  0  0
   49.4276  -65.4572   10.9453 C   0  0  0  0  0  0  0  0  0  0  0  0
   48.9321  -64.0107   11.0171 C   0  0  0  0  0  0  0  0  0  0  0  0
   48.0667  -63.7307    9.8025 C   0  0  0  0  0  0  0  0  0  0  0  0
   47.7412  -62.5758    9.5620 O   0  0  0  0  0  0  0  0  0  0  0  0
   47.6698  -64.6423    9.0570 O   0  0  0  0  0  0  0  0  0  0  0  0
   48.0349  -61.8809   10.1177 H   0  0  0  0  0  0  0  0  0  0  0  0
   53.0132  -63.7666   14.8560 C   0  0  0  0  0  0  0  0  0  0  0  0
   53.1959  -64.9004   15.8693 C   0  0  0  0  0  0  0  0  0  0  0  0
   54.0856  -65.9701   15.2952 C   0  0  0  0  0  0  0  0  0  0  0  0
   53.7433  -64.3566   17.1923 C   0  0  0  0  0  0  0  0  0  0  0  0
   48.7413  -62.8127   17.6746 C   0  0  0  0  0  0  0  0  0  0  0  0
   47.6848  -62.2088   16.7537 C   0  0  0  0  0  0  0  0  0  0  0  0
   47.7349  -62.7869   15.4079 N   0  0  0  0  0  0  0  0  0  0  0  0
   48.6453  -62.5959   14.9895 H   0  0  0  0  0  0  0  0  0  0  0  0
   47.0023  -62.3720   14.8321 H   0  0  0  0  0  0  0  0  0  0  0  0
   51.0986  -57.3966   20.6991 C   0  0  0  0  0  0  0  0  0  0  0  0
   50.3167  -57.4218   21.6678 O   0  0  0  0  0  0  0  0  0  0  0  0
   50.8506  -58.0665   19.5517 N   0  0  0  0  0  0  0  0  0  0  0  0
   51.5077  -58.0892   18.8188 H   0  0  0  0  0  0  0  0  0  0  0  0
   52.3841  -56.6363   20.8010 C   0  0  0  0  0  0  0  0  0  0  0  0
   52.4490  -54.2440   21.2341 C   0  0  0  0  0  0  0  0  0  0  0  0
   52.5317  -53.8841   20.0678 O   0  0  0  0  0  0  0  0  0  0  0  0
   52.3115  -55.5043   21.6916 N   0  0  0  0  0  0  0  0  0  0  0  0
   52.1584  -55.6551   22.6524 H   0  0  0  0  0  0  0  0  0  0  0  0
   52.4029  -53.1784   22.3009 C   0  0  0  0  0  0  0  0  0  0  0  0
   51.9716  -53.8503   23.6368 C   0  0  0  0  0  0  0  0  0  0  0  0
   50.8328  -53.0264   24.3084 C   0  0  0  0  0  0  0  0  0  0  0  0
   51.2468  -52.3293   25.5961 C   0  0  0  0  0  0  0  0  0  0  0  0
   51.8236  -50.0392   24.8205 C   0  0  0  0  0  0  0  0  0  0  0  0
   50.6658  -49.6113   24.6356 O   0  0  0  0  0  0  0  0  0  0  0  0
   52.2040  -51.2605   25.2784 N   0  0  0  0  0  0  0  0  0  0  0  0
   53.1644  -51.4374   25.4029 H   0  0  0  0  0  0  0  0  0  0  0  0
   52.9287  -49.0374   24.5582 C   0  0  0  0  0  0  0  0  0  0  0  0
   53.5457  -48.3447   25.5552 C   0  0  0  0  0  0  0  0  0  0  0  0
   54.5441  -47.4302   25.2043 C   0  0  0  0  0  0  0  0  0  0  0  0
   54.9552  -47.2367   23.8583 C   0  0  0  0  0  0  0  0  0  0  0  0
   54.3428  -47.9473   22.8968 C   0  0  0  0  0  0  0  0  0  0  0  0
   53.3436  -48.8562   23.2329 C   0  0  0  0  0  0  0  0  0  0  0  0
   55.9026  -46.3299   23.4875 O   0  0  0  0  0  0  0  0  0  0  0  0
   57.1173  -46.2201   24.1437 C   0  0  0  0  0  0  0  0  0  0  0  0
   57.8966  -45.0636   23.9586 C   0  0  0  0  0  0  0  0  0  0  0  0
   59.1447  -44.9471   24.5691 C   0  0  0  0  0  0  0  0  0  0  0  0
   59.6001  -45.9369   25.4145 C   0  0  0  0  0  0  0  0  0  0  0  0
   58.8393  -47.0868   25.6250 C   0  0  0  0  0  0  0  0  0  0  0  0
   57.6026  -47.2575   24.9816 C   0  0  0  0  0  0  0  0  0  0  0  0
   60.9554  -45.7953   26.0805 C   0  0  0  0  0  0  0  0  0  0  0  0
   61.1317  -46.0360   27.3957 N   0  0  0  0  0  0  0  0  0  0  0  0
   61.8816  -45.4706   25.3723 O   0  0  0  0  0  0  0  0  0  0  0  0
   60.3654  -46.2991   27.9550 H   0  0  0  0  0  0  0  0  0  0  0  0
   62.0267  -45.9487   27.7965 H   0  0  0  0  0  0  0  0  0  0  0  0
   53.5921  -57.5234   21.3026 C   0  0  0  0  0  0  0  0  0  0  0  0
   53.9645  -57.2056   22.7496 C   0  0  0  0  0  0  0  0  0  0  0  0
   53.2095  -57.9962   23.8449 C   0  0  0  0  0  0  0  0  0  0  0  0
   52.2708  -57.3361   24.3568 O   0  0  0  0  0  0  0  0  0  0  0  0
   53.4679  -59.2109   24.2114 O   0  0  0  0  0  0  0  0  0  0  0  0
   48.7852  -58.0620   18.3287 C   0  0  0  0  0  0  0  0  0  0  0  0
   47.6467  -57.1857   18.9012 C   0  0  0  0  0  0  0  0  0  0  0  0
   46.9242  -56.6090   18.0712 O   0  0  0  0  0  0  0  0  0  0  0  0
   47.4161  -57.0729   20.1511 O   0  0  0  0  0  0  0  0  0  0  0  0
 58 62  1  0
 58 60  1  0
 62 63  2  0
 63 64  1  0
 64 65  2  0
 69 70  2  0
 69 74  1  0
 69 68  1  0
 70 71  1  0
 71 72  2  0
 72 73  1  0
 73 74  2  0
 72 75  1  0
 75 76  1  0
 75 77  2  0
 65 66  1  0
 62 67  1  0
 66 67  2  0
 58 59  2  0
 65 68  1  0
 54 50  1  0
 54 55  1  0
 50 51  2  0
 50 52  1  0
 55 56  1  0
 56 57  1  0
 60 57  1  0
 52 49  1  0
 49 45  1  0
 49 80  1  0
 45 46  2  0
 45 47  1  0
 80 81  1  0
 81 82  1  0
 82 83  2  0
 82 84  1  0
 47  1  1  0
  1  2  1  0
  1 85  1  0
  2  3  2  0
  2  4  1  0
 85 86  1  0
 86 87  2  0
 86 88  1  0
  4  6  1  0
  6  7  1  0
  6 40  1  0
  7  8  2  0
  7  9  1  0
 40 41  1  0
 41 42  1  0
  9 11  1  0
 11 12  1  0
 11 36  1  0
 12 13  2  0
 12 14  1  0
 36 37  1  0
 37 38  1  0
 37 39  1  0
 14 16  1  0
 16 17  1  0
 16 30  1  0
 17 18  2  0
 17 19  1  0
 30 31  1  0
 31 32  1  0
 32 33  1  0
 32 34  2  0
 14 15  1  0
 24 20  1  0
 24 25  1  0
 25 26  2  0
 25 27  1  0
 19 20  1  0
 20 21  1  0
 21 22  1  0
 22 23  1  0
 19 23  1  0
 76 78  1  0
 76 79  1  0
 60 61  1  0
 52 53  1  0
 47 48  1  0
  4  5  1  0
 42 43  1  0
 42 44  1  0
  9 10  1  0
 33 35  1  0
 27 28  1  0
 27 29  1  0
M  CHG 1  84  -1
M  CHG 1  88  -1
M  END
> <minimizedAffinity>
-9.33460

> <CNNscore>
0.7201959491

> <CNNaffinity>
7.9366078377

> <CNN_VS>
5.7159128189

> <CNNaffinity_variance>
1.7731180191

$$$$
mmp2_crystal_ligand


 88 90  0  0  0  0  0  0  0  0999 V2000
   49.3653  -58.4903   19.5483 C   0  0  0  0  0  0  0  0  0  0  0  0
   49.5856  -60.0027   19.5394 C   0  0  0  0  0  0  0  0  0  0  0  0
   49.5183  -60.5974   20.5680 O   0  0  0  0  0  0  0  0  0  0  0  0
   49.8293  -60.6015   18.3714 N   0  0  0  0  0  0  0  0  0  0  0  0
   49.9139  -59.9894   17.6050 H   0  0  0  0  0  0  0  0  0  0  0  0
   49.9906  -62.0127   18.0443 C   0  0  0  0  0  0  0  0  0  0  0  0
   50.9451  -62.0668   16.8885 C   0  0  0  0  0  0  0  0  0  0  0  0
   51.4384  -61.0380   16.4866 O   0  0  0  0  0  0  0  0  0  0  0  0
   51.2273  -63.2922   16.4420 N   0  0  0  0  0  0  0  0  0  0  0  0
   50.7352  -64.0553   16.8224 H   0  0  0  0  0  0  0  0  0  0  0  0
   52.2114  -63.5483   15.4367 C   0  0  0  0  0  0  0  0  0  0  0  0
   51.7311  -64.1115   14.1226 C   0  0  0  0  0  0  0  0  0  0  0  0
   51.7274  -65.3134   13.9844 O   0  0  0  0  0  0  0  0  0  0  0  0
   51.3641  -63.2104   13.1715 N   0  0  0  0  0  0  0  0  0  0  0  0
   51.4123  -61.7582   13.3633 C   0  0  0  0  0  0  0  0  0  0  0  0
   50.9378  -63.6980   11.8558 C   0  0  0  0  0  0  0  0  0  0  0  0
   49.4815  -63.4578   11.6676 C   0  0  0  0  0  0  0  0  0  0  0  0
   49.0621  -62.4021   11.2029 O   0  0  0  0  0  0  0  0  0  0  0  0
   48.6478  -64.4668   11.9278 N   0  0  0  0  0  0  0  0  0  0  0  0
   47.1935  -64.3067   11.7546 C   0  0  0  0  0  0  0  0  0  0  0  0
   46.6727  -65.7163   11.6633 C   0  0  0  0  0  0  0  0  0  0  0  0
   47.6122  -66.4877   12.5903 C   0  0  0  0  0  0  0  0  0  0  0  0
   48.9763  -65.7709   12.4694 C   0  0  0  0  0  0  0  0  0  0  0  0
   46.6829  -63.6194   13.0515 C   0  0  0  0  0  0  0  0  0  0  0  0
   45.1830  -63.4610   12.9230 C   0  0  0  0  0  0  0  0  0  0  0  0
   44.3840  -63.8469   13.8190 O   0  0  0  0  0  0  0  0  0  0  0  0
   44.8194  -62.8996   11.7552 N   0  0  0  0  0  0  0  0  0  0  0  0
   45.5066  -62.6246   11.1061 H   0  0  0  0  0  0  0  0  0  0  0  0
   43.8661  -62.7639   11.5500 H   0  0  0  0  0  0  0  0  0  0  0  0
   51.3116  -65.1652   11.6826 C   0  0  0  0  0  0  0  0  0  0  0  0
   52.4544  -65.3062   10.6740 C   0  0  0  0  0  0  0  0  0  0  0  0
   51.8689  -65.3355    9.2744 C   0  0  0  0  0  0  0  0  0  0  0  0
   50.7445  -64.8874    9.0943 O   0  0  0  0  0  0  0  0  0  0  0  0
   52.4940  -65.8143    8.3129 O   0  0  0  0  0  0  0  0  0  0  0  0
   50.2644  -64.5241    9.8123 H   0  0  0  0  0  0  0  0  0  0  0  0
   53.1204  -64.6226   16.0281 C   0  0  0  0  0  0  0  0  0  0  0  0
   52.6133  -65.2549   17.3275 C   0  0  0  0  0  0  0  0  0  0  0  0
   52.9498  -64.3721   18.4992 C   0  0  0  0  0  0  0  0  0  0  0  0
   51.1098  -65.5329   17.2398 C   0  0  0  0  0  0  0  0  0  0  0  0
   48.6662  -62.6576   17.7491 C   0  0  0  0  0  0  0  0  0  0  0  0
   47.9928  -62.2786   16.4331 C   0  0  0  0  0  0  0  0  0  0  0  0
   46.5534  -62.5531   16.4542 N   0  0  0  0  0  0  0  0  0  0  0  0
   46.3997  -63.5515   16.5957 H   0  0  0  0  0  0  0  0  0  0  0  0
   46.1398  -62.2678   15.5666 H   0  0  0  0  0  0  0  0  0  0  0  0
   50.8062  -57.1055   20.8819 C   0  0  0  0  0  0  0  0  0  0  0  0
   50.0987  -57.3420   21.8788 O   0  0  0  0  0  0  0  0  0  0  0  0
   50.5638  -57.6622   19.6743 N   0  0  0  0  0  0  0  0  0  0  0  0
   51.1689  -57.5162   18.9115 H   0  0  0  0  0  0  0  0  0  0  0  0
   51.9965  -56.2069   21.0114 C   0  0  0  0  0  0  0  0  0  0  0  0
   52.2537  -54.3263   22.5318 C   0  0  0  0  0  0  0  0  0  0  0  0
   52.1114  -53.4415   21.6990 O   0  0  0  0  0  0  0  0  0  0  0  0
   52.1576  -55.6561   22.3344 N   0  0  0  0  0  0  0  0  0  0  0  0
   52.1982  -56.2632   23.1083 H   0  0  0  0  0  0  0  0  0  0  0  0
   52.4740  -53.9171   23.9670 C   0  0  0  0  0  0  0  0  0  0  0  0
   51.9103  -52.4782   24.1513 C   0  0  0  0  0  0  0  0  0  0  0  0
   53.0583  -51.4325   24.0276 C   0  0  0  0  0  0  0  0  0  0  0  0
   53.7631  -51.1255   25.3409 C   0  0  0  0  0  0  0  0  0  0  0  0
   54.4997  -48.7756   25.0029 C   0  0  0  0  0  0  0  0  0  0  0  0
   53.3893  -48.2172   25.1175 O   0  0  0  0  0  0  0  0  0  0  0  0
   54.7886  -50.0990   25.1080 N   0  0  0  0  0  0  0  0  0  0  0  0
   55.7275  -50.3831   25.0245 H   0  0  0  0  0  0  0  0  0  0  0  0
   55.6701  -47.8399   24.7832 C   0  0  0  0  0  0  0  0  0  0  0  0
   56.8624  -47.9902   25.4237 C   0  0  0  0  0  0  0  0  0  0  0  0
   57.8746  -47.0611   25.1621 C   0  0  0  0  0  0  0  0  0  0  0  0
   57.7091  -46.0033   24.2283 C   0  0  0  0  0  0  0  0  0  0  0  0
   56.5291  -45.8900   23.5965 C   0  0  0  0  0  0  0  0  0  0  0  0
   55.5120  -46.8051   23.8528 C   0  0  0  0  0  0  0  0  0  0  0  0
   58.6680  -45.0673   23.9793 O   0  0  0  0  0  0  0  0  0  0  0  0
   59.8996  -45.0844   24.6125 C   0  0  0  0  0  0  0  0  0  0  0  0
   60.1134  -45.9802   25.6759 C   0  0  0  0  0  0  0  0  0  0  0  0
   61.3271  -45.9860   26.3621 C   0  0  0  0  0  0  0  0  0  0  0  0
   62.3553  -45.1583   25.9627 C   0  0  0  0  0  0  0  0  0  0  0  0
   62.1723  -44.2711   24.9021 C   0  0  0  0  0  0  0  0  0  0  0  0
   60.9430  -44.2037   24.2262 C   0  0  0  0  0  0  0  0  0  0  0  0
   63.6746  -45.1795   26.7108 C   0  0  0  0  0  0  0  0  0  0  0  0
   64.2406  -46.3316   27.1246 N   0  0  0  0  0  0  0  0  0  0  0  0
   64.2093  -44.1117   26.9072 O   0  0  0  0  0  0  0  0  0  0  0  0
   63.7896  -47.1902   26.9553 H   0  0  0  0  0  0  0  0  0  0  0  0
   65.1046  -46.3139   27.5961 H   0  0  0  0  0  0  0  0  0  0  0  0
   53.3587  -56.9258   20.6570 C   0  0  0  0  0  0  0  0  0  0  0  0
   54.0583  -57.4588   21.9059 C   0  0  0  0  0  0  0  0  0  0  0  0
   53.3826  -58.6561   22.6162 C   0  0  0  0  0  0  0  0  0  0  0  0
   52.9935  -59.5386   21.8109 O   0  0  0  0  0  0  0  0  0  0  0  0
   53.2316  -58.7862   23.8957 O   0  0  0  0  0  0  0  0  0  0  0  0
   48.6016  -57.9773   18.3281 C   0  0  0  0  0  0  0  0  0  0  0  0
   47.5291  -56.9391   18.7326 C   0  0  0  0  0  0  0  0  0  0  0  0
   47.5544  -56.5513   19.9126 O   0  0  0  0  0  0  0  0  0  0  0  0
   46.6768  -56.4622   17.9113 O   0  0  0  0  0  0  0  0  0  0  0  0
 58 62  1  0
 58 60  1  0
 62 63  2  0
 63 64  1  0
 64 65  2  0
 69 70  2  0
 69 74  1  0
 69 68  1  0
 70 71  1  0
 71 72  2  0
 72 73  1  0
 73 74  2  0
 72 75  1  0
 75 76  1  0
 75 77  2  0
 65 66  1  0
 62 67  1  0
 66 67  2  0
 58 59  2  0
 65 68  1  0
 54 50  1  0
 54 55  1  0
 50 51  2  0
 50 52  1  0
 55 56  1  0
 56 57  1  0
 60 57  1  0
 52 49  1  0
 49 45  1  0
 49 80  1  0
 45 46  2  0
 45 47  1  0
 80 81  1  0
 81 82  1  0
 82 83  2  0
 82 84  1  0
 47  1  1  0
  1  2  1  0
  1 85  1  0
  2  3  2  0
  2  4  1  0
 85 86  1  0
 86 87  2  0
 86 88  1  0
  4  6  1  0
  6  7  1  0
  6 40  1  0
  7  8  2  0
  7  9  1  0
 40 41  1  0
 41 42  1  0
  9 11  1  0
 11 12  1  0
 11 36  1  0
 12 13  2  0
 12 14  1  0
 36 37  1  0
 37 38  1  0
 37 39  1  0
 14 16  1  0
 16 17  1  0
 16 30  1  0
 17 18  2  0
 17 19  1  0
 30 31  1  0
 31 32  1  0
 32 33  1  0
 32 34  2  0
 14 15  1  0
 24 20  1  0
 24 25  1  0
 25 26  2  0
 25 27  1  0
 19 20  1  0
 20 21  1  0
 21 22  1  0
 22 23  1  0
 19 23  1  0
 76 78  1  0
 76 79  1  0
 60 61  1  0
 52 53  1  0
 47 48  1  0
  4  5  1  0
 42 43  1  0
 42 44  1  0
  9 10  1  0
 33 35  1  0
 27 28  1  0
 27 29  1  0
M  CHG 1  84  -1
M  CHG 1  88  -1
M  END
> <minimizedAffinity>
-9.69819

> <CNNscore>
0.6254963875

> <CNNaffinity>
7.6146750450

> <CNN_VS>
4.7629518509

> <CNNaffinity_variance>
1.7313736677

$$$$
mmp2_crystal_ligand


 88 90  0  0  0  0  0  0  0  0999 V2000
   49.6348  -58.9513   19.3256 C   0  0  0  0  0  0  0  0  0  0  0  0
   49.8498  -60.4295   19.0019 C   0  0  0  0  0  0  0  0  0  0  0  0
   50.4059  -61.1155   19.7995 O   0  0  0  0  0  0  0  0  0  0  0  0
   49.3888  -60.8981   17.8399 N   0  0  0  0  0  0  0  0  0  0  0  0
   48.9981  -60.2160   17.2472 H   0  0  0  0  0  0  0  0  0  0  0  0
   49.3690  -62.2536   17.3045 C   0  0  0  0  0  0  0  0  0  0  0  0
   50.5948  -62.3826   16.4497 C   0  0  0  0  0  0  0  0  0  0  0  0
   51.1255  -61.3798   16.0301 O   0  0  0  0  0  0  0  0  0  0  0  0
   51.0437  -63.6285   16.2851 N   0  0  0  0  0  0  0  0  0  0  0  0
   50.5068  -64.3720   16.6431 H   0  0  0  0  0  0  0  0  0  0  0  0
   52.2683  -63.9336   15.6130 C   0  0  0  0  0  0  0  0  0  0  0  0
   52.1955  -64.8569   14.4226 C   0  0  0  0  0  0  0  0  0  0  0  0
   52.1965  -66.0497   14.6251 O   0  0  0  0  0  0  0  0  0  0  0  0
   52.1654  -64.2684   13.1963 N   0  0  0  0  0  0  0  0  0  0  0  0
   52.1983  -62.8181   12.9875 C   0  0  0  0  0  0  0  0  0  0  0  0
   52.1469  -65.1165   12.0000 C   0  0  0  0  0  0  0  0  0  0  0  0
   53.5228  -65.5862   11.6835 C   0  0  0  0  0  0  0  0  0  0  0  0
   54.4878  -65.2407   12.3588 O   0  0  0  0  0  0  0  0  0  0  0  0
   53.6632  -66.4768   10.6997 N   0  0  0  0  0  0  0  0  0  0  0  0
   54.9936  -66.9953   10.3365 C   0  0  0  0  0  0  0  0  0  0  0  0
   54.7042  -68.2658    9.5825 C   0  0  0  0  0  0  0  0  0  0  0  0
   53.3927  -67.9455    8.8653 C   0  0  0  0  0  0  0  0  0  0  0  0
   52.6349  -66.9920    9.8170 C   0  0  0  0  0  0  0  0  0  0  0  0
   55.6224  -65.9323    9.3932 C   0  0  0  0  0  0  0  0  0  0  0  0
   57.0038  -65.6130    9.9233 C   0  0  0  0  0  0  0  0  0  0  0  0
   57.6632  -66.4278   10.6244 O   0  0  0  0  0  0  0  0  0  0  0  0
   57.4151  -64.3767    9.5863 N   0  0  0  0  0  0  0  0  0  0  0  0
   56.8395  -63.7998    9.0340 H   0  0  0  0  0  0  0  0  0  0  0  0
   58.2917  -64.0491    9.8921 H   0  0  0  0  0  0  0  0  0  0  0  0
   51.5017  -64.3799   10.8324 C   0  0  0  0  0  0  0  0  0  0  0  0
   50.0123  -64.7224   10.7466 C   0  0  0  0  0  0  0  0  0  0  0  0
   49.2097  -63.5390   11.2546 C   0  0  0  0  0  0  0  0  0  0  0  0
   49.4215  -62.4323   10.7773 O   0  0  0  0  0  0  0  0  0  0  0  0
   48.3563  -63.6622   12.1496 O   0  0  0  0  0  0  0  0  0  0  0  0
   50.0627  -62.3282   10.1021 H   0  0  0  0  0  0  0  0  0  0  0  0
   53.1201  -64.6701   16.6435 C   0  0  0  0  0  0  0  0  0  0  0  0
   52.3690  -65.1208   17.8998 C   0  0  0  0  0  0  0  0  0  0  0  0
   52.5221  -66.6060   18.0902 C   0  0  0  0  0  0  0  0  0  0  0  0
   52.8519  -64.3389   19.1250 C   0  0  0  0  0  0  0  0  0  0  0  0
   48.0945  -62.5245   16.5567 C   0  0  0  0  0  0  0  0  0  0  0  0
   47.5069  -63.9274   16.6812 C   0  0  0  0  0  0  0  0  0  0  0  0
   46.8959  -64.1518   17.9943 N   0  0  0  0  0  0  0  0  0  0  0  0
   47.6058  -64.0561   18.7204 H   0  0  0  0  0  0  0  0  0  0  0  0
   46.4989  -65.0908   18.0286 H   0  0  0  0  0  0  0  0  0  0  0  0
   51.2059  -57.8670   20.7845 C   0  0  0  0  0  0  0  0  0  0  0  0
   50.6021  -58.3327   21.7689 O   0  0  0  0  0  0  0  0  0  0  0  0
   50.8417  -58.1474   19.5134 N   0  0  0  0  0  0  0  0  0  0  0  0
   51.3670  -57.8239   18.7462 H   0  0  0  0  0  0  0  0  0  0  0  0
   52.4050  -56.9953   20.9921 C   0  0  0  0  0  0  0  0  0  0  0  0
   52.1448  -54.6029   21.3431 C   0  0  0  0  0  0  0  0  0  0  0  0
   52.2377  -54.2697   20.1696 O   0  0  0  0  0  0  0  0  0  0  0  0
   52.1462  -55.8565   21.8382 N   0  0  0  0  0  0  0  0  0  0  0  0
   51.9671  -55.9974   22.7959 H   0  0  0  0  0  0  0  0  0  0  0  0
   51.9122  -53.5212   22.3685 C   0  0  0  0  0  0  0  0  0  0  0  0
   52.8771  -53.7725   23.5634 C   0  0  0  0  0  0  0  0  0  0  0  0
   52.1087  -53.6346   24.9115 C   0  0  0  0  0  0  0  0  0  0  0  0
   51.3658  -52.3161   25.0710 C   0  0  0  0  0  0  0  0  0  0  0  0
   51.9305  -49.9581   24.5233 C   0  0  0  0  0  0  0  0  0  0  0  0
   50.7751  -49.5385   24.3070 O   0  0  0  0  0  0  0  0  0  0  0  0
   52.3135  -51.2061   24.8997 N   0  0  0  0  0  0  0  0  0  0  0  0
   53.2693  -51.3745   25.0652 H   0  0  0  0  0  0  0  0  0  0  0  0
   53.0243  -48.9168   24.4103 C   0  0  0  0  0  0  0  0  0  0  0  0
   53.6131  -48.3472   25.4982 C   0  0  0  0  0  0  0  0  0  0  0  0
   54.6031  -47.3827   25.2843 C   0  0  0  0  0  0  0  0  0  0  0  0
   55.0344  -47.0156   23.9814 C   0  0  0  0  0  0  0  0  0  0  0  0
   54.4498  -47.6073   22.9266 C   0  0  0  0  0  0  0  0  0  0  0  0
   53.4592  -48.5644   23.1265 C   0  0  0  0  0  0  0  0  0  0  0  0
   55.9739  -46.0568   23.7458 O   0  0  0  0  0  0  0  0  0  0  0  0
   57.2566  -46.1365   24.2620 C   0  0  0  0  0  0  0  0  0  0  0  0
   58.1663  -45.0941   24.0070 C   0  0  0  0  0  0  0  0  0  0  0  0
   59.4778  -45.1704   24.4741 C   0  0  0  0  0  0  0  0  0  0  0  0
   59.8790  -46.2390   25.2480 C   0  0  0  0  0  0  0  0  0  0  0  0
   58.9912  -47.2782   25.5263 C   0  0  0  0  0  0  0  0  0  0  0  0
   57.6796  -47.2561   25.0244 C   0  0  0  0  0  0  0  0  0  0  0  0
   61.3056  -46.3070   25.7585 C   0  0  0  0  0  0  0  0  0  0  0  0
   62.2774  -45.5125   25.2655 N   0  0  0  0  0  0  0  0  0  0  0  0
   61.5321  -47.0992   26.6450 O   0  0  0  0  0  0  0  0  0  0  0  0
   62.0730  -44.8745   24.5442 H   0  0  0  0  0  0  0  0  0  0  0  0
   63.1913  -45.5706   25.6270 H   0  0  0  0  0  0  0  0  0  0  0  0
   53.6268  -57.7633   21.6369 C   0  0  0  0  0  0  0  0  0  0  0  0
   53.9236  -57.2675   23.0509 C   0  0  0  0  0  0  0  0  0  0  0  0
   53.2398  -58.0349   24.2078 C   0  0  0  0  0  0  0  0  0  0  0  0
   52.2013  -57.4608   24.6210 O   0  0  0  0  0  0  0  0  0  0  0  0
   53.6453  -59.1565   24.7119 O   0  0  0  0  0  0  0  0  0  0  0  0
   48.7739  -58.2198   18.2965 C   0  0  0  0  0  0  0  0  0  0  0  0
   47.7864  -57.2461   18.9810 C   0  0  0  0  0  0  0  0  0  0  0  0
   47.0624  -56.5746   18.2271 O   0  0  0  0  0  0  0  0  0  0  0  0
   47.6741  -57.1446   20.2480 O   0  0  0  0  0  0  0  0  0  0  0  0
 58 62  1  0
 58 60  1  0
 62 63  2  0
 63 64  1  0
 64 65  2  0
 69 70  2  0
 69 74  1  0
 69 68  1  0
 70 71  1  0
 71 72  2  0
 72 73  1  0
 73 74  2  0
 72 75  1  0
 75 76  1  0
 75 77  2  0
 65 66  1  0
 62 67  1  0
 66 67  2  0
 58 59  2  0
 65 68  1  0
 54 50  1  0
 54 55  1  0
 50 51  2  0
 50 52  1  0
 55 56  1  0
 56 57  1  0
 60 57  1  0
 52 49  1  0
 49 45  1  0
 49 80  1  0
 45 46  2  0
 45 47  1  0
 80 81  1  0
 81 82  1  0
 82 83  2  0
 82 84  1  0
 47  1  1  0
  1  2  1  0
  1 85  1  0
  2  3  2  0
  2  4  1  0
 85 86  1  0
 86 87  2  0
 86 88  1  0
  4  6  1  0
  6  7  1  0
  6 40  1  0
  7  8  2  0
  7  9  1  0
 40 41  1  0
 41 42  1  0
  9 11  1  0
 11 12  1  0
 11 36  1  0
 12 13  2  0
 12 14  1  0
 36 37  1  0
 37 38  1  0
 37 39  1  0
 14 16  1  0
 16 17  1  0
 16 30  1  0
 17 18  2  0
 17 19  1  0
 30 31  1  0
 31 32  1  0
 32 33  1  0
 32 34  2  0
 14 15  1  0
 24 20  1  0
 24 25  1  0
 25 26  2  0
 25 27  1  0
 19 20  1  0
 20 21  1  0
 21 22  1  0
 22 23  1  0
 19 23  1  0
 76 78  1  0
 76 79  1  0
 60 61  1  0
 52 53  1  0
 47 48  1  0
  4  5  1  0
 42 43  1  0
 42 44  1  0
  9 10  1  0
 33 35  1  0
 27 28  1  0
 27 29  1  0
M  CHG 1  84  -1
M  CHG 1  88  -1
M  END
> <minimizedAffinity>
-9.52273

> <CNNscore>
0.5646950006

> <CNNaffinity>
7.7124876976

> <CNN_VS>
4.3552031517

> <CNNaffinity_variance>
2.2307257652

$$$$
mmp2_crystal_ligand


 88 90  0  0  0  0  0  0  0  0999 V2000
   49.5485  -58.5683   19.9059 C   0  0  0  0  0  0  0  0  0  0  0  0
   50.2467  -59.9203   20.0487 C   0  0  0  0  0  0  0  0  0  0  0  0
   50.6058  -60.2684   21.1286 O   0  0  0  0  0  0  0  0  0  0  0  0
   50.4122  -60.6676   18.9549 N   0  0  0  0  0  0  0  0  0  0  0  0
   50.1207  -60.2407   18.1170 H   0  0  0  0  0  0  0  0  0  0  0  0
   50.9534  -62.0118   18.7973 C   0  0  0  0  0  0  0  0  0  0  0  0
   51.3127  -62.1496   17.3475 C   0  0  0  0  0  0  0  0  0  0  0  0
   51.7977  -61.2032   16.7709 O   0  0  0  0  0  0  0  0  0  0  0  0
   51.1256  -63.3649   16.8292 N   0  0  0  0  0  0  0  0  0  0  0  0
   50.6877  -64.0498   17.3847 H   0  0  0  0  0  0  0  0  0  0  0  0
   51.5314  -63.7186   15.5045 C   0  0  0  0  0  0  0  0  0  0  0  0
   50.4447  -63.9687   14.4890 C   0  0  0  0  0  0  0  0  0  0  0  0
   49.8034  -64.9906   14.5799 O   0  0  0  0  0  0  0  0  0  0  0  0
   50.2894  -63.0276   13.5188 N   0  0  0  0  0  0  0  0  0  0  0  0
   51.1075  -61.8155   13.4211 C   0  0  0  0  0  0  0  0  0  0  0  0
   49.2832  -63.2420   12.4738 C   0  0  0  0  0  0  0  0  0  0  0  0
   47.9154  -63.1208   13.0469 C   0  0  0  0  0  0  0  0  0  0  0  0
   47.7216  -62.5773   14.1301 O   0  0  0  0  0  0  0  0  0  0  0  0
   46.8906  -63.5341   12.2987 N   0  0  0  0  0  0  0  0  0  0  0  0
   45.5069  -63.4359   12.7952 C   0  0  0  0  0  0  0  0  0  0  0  0
   44.6596  -63.5220   11.5538 C   0  0  0  0  0  0  0  0  0  0  0  0
   45.4636  -64.4630   10.6566 C   0  0  0  0  0  0  0  0  0  0  0  0
   46.9439  -64.1851   11.0043 C   0  0  0  0  0  0  0  0  0  0  0  0
   45.2868  -64.6847   13.6936 C   0  0  0  0  0  0  0  0  0  0  0  0
   45.3479  -64.2258   15.1347 C   0  0  0  0  0  0  0  0  0  0  0  0
   45.9115  -64.9040   16.0361 O   0  0  0  0  0  0  0  0  0  0  0  0
   44.7192  -63.0522   15.3319 N   0  0  0  0  0  0  0  0  0  0  0  0
   44.3028  -62.5833   14.5730 H   0  0  0  0  0  0  0  0  0  0  0  0
   44.6758  -62.6627   16.2350 H   0  0  0  0  0  0  0  0  0  0  0  0
   49.5068  -64.5819   11.7831 C   0  0  0  0  0  0  0  0  0  0  0  0
   50.8911  -64.6183   11.1308 C   0  0  0  0  0  0  0  0  0  0  0  0
   50.7235  -64.8779    9.6452 C   0  0  0  0  0  0  0  0  0  0  0  0
   49.6041  -64.8088    9.1554 O   0  0  0  0  0  0  0  0  0  0  0  0
   51.6880  -65.1718    8.9188 O   0  0  0  0  0  0  0  0  0  0  0  0
   48.8699  -64.5879    9.6941 H   0  0  0  0  0  0  0  0  0  0  0  0
   52.2623  -65.0507   15.6499 C   0  0  0  0  0  0  0  0  0  0  0  0
   53.7868  -64.9441   15.7505 C   0  0  0  0  0  0  0  0  0  0  0  0
   54.2004  -64.7686   17.1870 C   0  0  0  0  0  0  0  0  0  0  0  0
   54.4549  -66.1660   15.1129 C   0  0  0  0  0  0  0  0  0  0  0  0
   49.9745  -63.0507   19.2660 C   0  0  0  0  0  0  0  0  0  0  0  0
   48.4933  -62.7428   19.0656 C   0  0  0  0  0  0  0  0  0  0  0  0
   47.9787  -63.3117   17.8168 N   0  0  0  0  0  0  0  0  0  0  0  0
   48.4810  -62.9072   17.0266 H   0  0  0  0  0  0  0  0  0  0  0  0
   46.9844  -63.1009   17.7316 H   0  0  0  0  0  0  0  0  0  0  0  0
   50.5858  -56.7698   21.1150 C   0  0  0  0  0  0  0  0  0  0  0  0
   50.1087  -57.2167   22.1747 O   0  0  0  0  0  0  0  0  0  0  0  0
   50.4119  -57.3883   19.9259 N   0  0  0  0  0  0  0  0  0  0  0  0
   50.8483  -57.0583   19.1074 H   0  0  0  0  0  0  0  0  0  0  0  0
   51.4186  -55.5261   21.1410 C   0  0  0  0  0  0  0  0  0  0  0  0
   52.1429  -53.7930   22.6858 C   0  0  0  0  0  0  0  0  0  0  0  0
   52.2793  -52.9032   21.8574 O   0  0  0  0  0  0  0  0  0  0  0  0
   51.6857  -55.0429   22.4733 N   0  0  0  0  0  0  0  0  0  0  0  0
   51.5311  -55.6376   23.2425 H   0  0  0  0  0  0  0  0  0  0  0  0
   52.4238  -53.4624   24.1306 C   0  0  0  0  0  0  0  0  0  0  0  0
   51.0661  -53.1666   24.8315 C   0  0  0  0  0  0  0  0  0  0  0  0
   51.3113  -52.6666   26.2864 C   0  0  0  0  0  0  0  0  0  0  0  0
   50.8622  -51.2341   26.5349 C   0  0  0  0  0  0  0  0  0  0  0  0
   51.8474  -49.5559   24.9883 C   0  0  0  0  0  0  0  0  0  0  0  0
   50.8989  -49.4713   24.1814 O   0  0  0  0  0  0  0  0  0  0  0  0
   51.9284  -50.3154   26.1119 N   0  0  0  0  0  0  0  0  0  0  0  0
   52.7379  -50.2472   26.6679 H   0  0  0  0  0  0  0  0  0  0  0  0
   53.0208  -48.6431   24.6991 C   0  0  0  0  0  0  0  0  0  0  0  0
   53.7622  -48.0636   25.6835 C   0  0  0  0  0  0  0  0  0  0  0  0
   54.8157  -47.2233   25.3093 C   0  0  0  0  0  0  0  0  0  0  0  0
   55.1549  -46.9933   23.9490 C   0  0  0  0  0  0  0  0  0  0  0  0
   54.4187  -47.5929   22.9988 C   0  0  0  0  0  0  0  0  0  0  0  0
   53.3639  -48.4268   23.3586 C   0  0  0  0  0  0  0  0  0  0  0  0
   56.1558  -46.1550   23.5581 O   0  0  0  0  0  0  0  0  0  0  0  0
   57.3909  -46.1362   24.1845 C   0  0  0  0  0  0  0  0  0  0  0  0
   58.2049  -44.9951   24.0651 C   0  0  0  0  0  0  0  0  0  0  0  0
   59.4724  -44.9671   24.6455 C   0  0  0  0  0  0  0  0  0  0  0  0
   59.9154  -46.0337   25.3991 C   0  0  0  0  0  0  0  0  0  0  0  0
   59.1207  -47.1708   25.5438 C   0  0  0  0  0  0  0  0  0  0  0  0
   57.8619  -47.2506   24.9262 C   0  0  0  0  0  0  0  0  0  0  0  0
   61.2924  -45.9885   26.0336 C   0  0  0  0  0  0  0  0  0  0  0  0
   61.8261  -47.0599   26.6549 N   0  0  0  0  0  0  0  0  0  0  0  0
   61.9024  -44.9472   25.9432 O   0  0  0  0  0  0  0  0  0  0  0  0
   61.3137  -47.8982   26.7181 H   0  0  0  0  0  0  0  0  0  0  0  0
   62.7281  -47.0037   27.0454 H   0  0  0  0  0  0  0  0  0  0  0  0
   52.8236  -55.7048   20.4398 C   0  0  0  0  0  0  0  0  0  0  0  0
   53.3365  -57.1387   20.5586 C   0  0  0  0  0  0  0  0  0  0  0  0
   53.6480  -57.6429   21.9881 C   0  0  0  0  0  0  0  0  0  0  0  0
   53.3896  -58.8635   22.1369 O   0  0  0  0  0  0  0  0  0  0  0  0
   54.1399  -56.9280   22.9492 O   0  0  0  0  0  0  0  0  0  0  0  0
   48.6811  -58.4583   18.6526 C   0  0  0  0  0  0  0  0  0  0  0  0
   48.0790  -57.0410   18.5090 C   0  0  0  0  0  0  0  0  0  0  0  0
   48.4835  -56.3648   17.5485 O   0  0  0  0  0  0  0  0  0  0  0  0
   47.1873  -56.5801   19.2970 O   0  0  0  0  0  0  0  0  0  0  0  0
 58 62  1  0
 58 60  1  0
 62 63  2  0
 63 64  1  0
 64 65  2  0
 69 70  2  0
 69 74  1  0
 69 68  1  0
 70 71  1  0
 71 72  2  0
 72 73  1  0
 73 74  2  0
 72 75  1  0
 75 76  1  0
 75 77  2  0
 65 66  1  0
 62 67  1  0
 66 67  2  0
 58 59  2  0
 65 68  1  0
 54 50  1  0
 54 55  1  0
 50 51  2  0
 50 52  1  0
 55 56  1  0
 56 57  1  0
 60 57  1  0
 52 49  1  0
 49 45  1  0
 49 80  1  0
 45 46  2  0
 45 47  1  0
 80 81  1  0
 81 82  1  0
 82 83  2  0
 82 84  1  0
 47  1  1  0
  1  2  1  0
  1 85  1  0
  2  3  2  0
  2  4  1  0
 85 86  1  0
 86 87  2  0
 86 88  1  0
  4  6  1  0
  6  7  1  0
  6 40  1  0
  7  8  2  0
  7  9  1  0
 40 41  1  0
 41 42  1  0
  9 11  1  0
 11 12  1  0
 11 36  1  0
 12 13  2  0
 12 14  1  0
 36 37  1  0
 37 38  1  0
 37 39  1  0
 14 16  1  0
 16 17  1  0
 16 30  1  0
 17 18  2  0
 17 19  1  0
 30 31  1  0
 31 32  1  0
 32 33  1  0
 32 34  2  0
 14 15  1  0
 24 20  1  0
 24 25  1  0
 25 26  2  0
 25 27  1  0
 19 20  1  0
 20 21  1  0
 21 22  1  0
 22 23  1  0
 19 23  1  0
 76 78  1  0
 76 79  1  0
 60 61  1  0
 52 53  1  0
 47 48  1  0
  4  5  1  0
 42 43  1  0
 42 44  1  0
  9 10  1  0
 33 35  1  0
 27 28  1  0
 27 29  1  0
M  CHG 1  84  -1
M  CHG 1  88  -1
M  END
> <minimizedAffinity>
-9.43674

> <CNNscore>
0.5096323490

> <CNNaffinity>
8.5205726624

> <CNN_VS>
4.3423595428

> <CNNaffinity_variance>
1.0471564531

$$$$
mmp2_crystal_ligand


 88 90  0  0  0  0  0  0  0  0999 V2000
   49.4428  -58.5627   19.3846 C   0  0  0  0  0  0  0  0  0  0  0  0
   49.7052  -60.0478   19.1364 C   0  0  0  0  0  0  0  0  0  0  0  0
   48.7763  -60.7850   19.0381 O   0  0  0  0  0  0  0  0  0  0  0  0
   50.9705  -60.4582   19.0228 N   0  0  0  0  0  0  0  0  0  0  0  0
   51.6455  -59.7588   19.1795 H   0  0  0  0  0  0  0  0  0  0  0  0
   51.5169  -61.7715   18.7050 C   0  0  0  0  0  0  0  0  0  0  0  0
   51.1829  -62.0250   17.2648 C   0  0  0  0  0  0  0  0  0  0  0  0
   51.5117  -61.2095   16.4341 O   0  0  0  0  0  0  0  0  0  0  0  0
   50.5991  -63.1988   17.0154 N   0  0  0  0  0  0  0  0  0  0  0  0
   50.3443  -63.7676   17.7775 H   0  0  0  0  0  0  0  0  0  0  0  0
   50.3266  -63.6687   15.6927 C   0  0  0  0  0  0  0  0  0  0  0  0
   51.4929  -63.7864   14.7437 C   0  0  0  0  0  0  0  0  0  0  0  0
   51.6453  -62.9166   13.9167 O   0  0  0  0  0  0  0  0  0  0  0  0
   52.2746  -64.8924   14.8737 N   0  0  0  0  0  0  0  0  0  0  0  0
   52.0404  -65.9434   15.8679 C   0  0  0  0  0  0  0  0  0  0  0  0
   53.3927  -65.0869   13.9448 C   0  0  0  0  0  0  0  0  0  0  0  0
   52.8795  -65.3984   12.5834 C   0  0  0  0  0  0  0  0  0  0  0  0
   53.2332  -64.7506   11.6028 O   0  0  0  0  0  0  0  0  0  0  0  0
   52.0967  -66.4704   12.4459 N   0  0  0  0  0  0  0  0  0  0  0  0
   51.5595  -66.8473   11.1268 C   0  0  0  0  0  0  0  0  0  0  0  0
   51.1713  -68.2935   11.2830 C   0  0  0  0  0  0  0  0  0  0  0  0
   50.7171  -68.3691   12.7408 C   0  0  0  0  0  0  0  0  0  0  0  0
   51.5951  -67.3415   13.4907 C   0  0  0  0  0  0  0  0  0  0  0  0
   50.2990  -65.9642   10.9118 C   0  0  0  0  0  0  0  0  0  0  0  0
   50.4524  -65.2687    9.5762 C   0  0  0  0  0  0  0  0  0  0  0  0
   51.5158  -65.3296    8.9013 O   0  0  0  0  0  0  0  0  0  0  0  0
   49.3543  -64.5748    9.2242 N   0  0  0  0  0  0  0  0  0  0  0  0
   48.5617  -64.5781    9.8081 H   0  0  0  0  0  0  0  0  0  0  0  0
   49.3436  -64.0639    8.3827 H   0  0  0  0  0  0  0  0  0  0  0  0
   54.3414  -66.1590   14.4672 C   0  0  0  0  0  0  0  0  0  0  0  0
   54.9633  -66.9313   13.3011 C   0  0  0  0  0  0  0  0  0  0  0  0
   55.6672  -68.1587   13.8492 C   0  0  0  0  0  0  0  0  0  0  0  0
   56.5796  -68.0085   14.6508 O   0  0  0  0  0  0  0  0  0  0  0  0
   55.3517  -69.3074   13.4952 O   0  0  0  0  0  0  0  0  0  0  0  0
   56.8257  -67.1468   14.9244 H   0  0  0  0  0  0  0  0  0  0  0  0
   49.4074  -62.6187   15.0742 C   0  0  0  0  0  0  0  0  0  0  0  0
   48.1858  -63.1802   14.3408 C   0  0  0  0  0  0  0  0  0  0  0  0
   46.9391  -62.4647   14.7873 C   0  0  0  0  0  0  0  0  0  0  0  0
   48.3799  -63.0893   12.8243 C   0  0  0  0  0  0  0  0  0  0  0  0
   50.9778  -62.8239   19.6319 C   0  0  0  0  0  0  0  0  0  0  0  0
   51.5024  -62.8148   21.0649 C   0  0  0  0  0  0  0  0  0  0  0  0
   52.2173  -61.5748   21.3797 N   0  0  0  0  0  0  0  0  0  0  0  0
   53.0237  -61.4811   20.7622 H   0  0  0  0  0  0  0  0  0  0  0  0
   52.5328  -61.6011   22.3493 H   0  0  0  0  0  0  0  0  0  0  0  0
   51.2182  -57.8729   20.8491 C   0  0  0  0  0  0  0  0  0  0  0  0
   50.8541  -58.7255   21.6802 O   0  0  0  0  0  0  0  0  0  0  0  0
   50.6177  -57.7325   19.6464 N   0  0  0  0  0  0  0  0  0  0  0  0
   50.9571  -57.0978   18.9746 H   0  0  0  0  0  0  0  0  0  0  0  0
   52.3860  -56.9877   21.1551 C   0  0  0  0  0  0  0  0  0  0  0  0
   52.1000  -54.5787   21.3279 C   0  0  0  0  0  0  0  0  0  0  0  0
   52.3470  -54.3157   20.1589 O   0  0  0  0  0  0  0  0  0  0  0  0
   52.0279  -55.8007   21.8918 N   0  0  0  0  0  0  0  0  0  0  0  0
   51.7248  -55.8847   22.8247 H   0  0  0  0  0  0  0  0  0  0  0  0
   51.7442  -53.4382   22.2489 C   0  0  0  0  0  0  0  0  0  0  0  0
   52.7198  -53.4734   23.4609 C   0  0  0  0  0  0  0  0  0  0  0  0
   51.9187  -53.6031   24.7907 C   0  0  0  0  0  0  0  0  0  0  0  0
   51.3644  -52.2857   25.3130 C   0  0  0  0  0  0  0  0  0  0  0  0
   51.8572  -49.9958   24.4810 C   0  0  0  0  0  0  0  0  0  0  0  0
   50.6835  -49.6011   24.3247 O   0  0  0  0  0  0  0  0  0  0  0  0
   52.2832  -51.1986   24.9477 N   0  0  0  0  0  0  0  0  0  0  0  0
   53.2513  -51.3486   25.0456 H   0  0  0  0  0  0  0  0  0  0  0  0
   52.9272  -48.9709   24.1677 C   0  0  0  0  0  0  0  0  0  0  0  0
   53.3875  -48.7501   22.9052 C   0  0  0  0  0  0  0  0  0  0  0  0
   54.3899  -47.7915   22.7257 C   0  0  0  0  0  0  0  0  0  0  0  0
   54.9052  -47.0230   23.8037 C   0  0  0  0  0  0  0  0  0  0  0  0
   54.4195  -47.2481   25.0357 C   0  0  0  0  0  0  0  0  0  0  0  0
   53.4258  -48.2036   25.2280 C   0  0  0  0  0  0  0  0  0  0  0  0
   55.9032  -46.1061   23.6601 O   0  0  0  0  0  0  0  0  0  0  0  0
   57.1445  -46.2659   24.2531 C   0  0  0  0  0  0  0  0  0  0  0  0
   57.4098  -47.4357   24.9881 C   0  0  0  0  0  0  0  0  0  0  0  0
   58.6337  -47.6018   25.6351 C   0  0  0  0  0  0  0  0  0  0  0  0
   59.6227  -46.6492   25.5067 C   0  0  0  0  0  0  0  0  0  0  0  0
   59.3885  -45.4872   24.7716 C   0  0  0  0  0  0  0  0  0  0  0  0
   58.1469  -45.2663   24.1534 C   0  0  0  0  0  0  0  0  0  0  0  0
   60.9536  -46.8446   26.2073 C   0  0  0  0  0  0  0  0  0  0  0  0
   61.1573  -47.8505   27.0822 N   0  0  0  0  0  0  0  0  0  0  0  0
   61.8361  -46.0632   25.9329 O   0  0  0  0  0  0  0  0  0  0  0  0
   60.4265  -48.4758   27.2922 H   0  0  0  0  0  0  0  0  0  0  0  0
   62.0368  -47.9594   27.5110 H   0  0  0  0  0  0  0  0  0  0  0  0
   53.5117  -57.7128   21.9947 C   0  0  0  0  0  0  0  0  0  0  0  0
   53.3731  -57.4297   23.4894 C   0  0  0  0  0  0  0  0  0  0  0  0
   53.3649  -58.6614   24.4262 C   0  0  0  0  0  0  0  0  0  0  0  0
   53.7768  -58.3918   25.5822 O   0  0  0  0  0  0  0  0  0  0  0  0
   52.9673  -59.8509   24.1041 O   0  0  0  0  0  0  0  0  0  0  0  0
   48.6653  -57.8833   18.2581 C   0  0  0  0  0  0  0  0  0  0  0  0
   47.6142  -56.8961   18.8171 C   0  0  0  0  0  0  0  0  0  0  0  0
   46.7546  -56.4936   18.0156 O   0  0  0  0  0  0  0  0  0  0  0  0
   47.5854  -56.5275   20.0385 O   0  0  0  0  0  0  0  0  0  0  0  0
 58 62  1  0
 58 60  1  0
 62 63  2  0
 63 64  1  0
 64 65  2  0
 69 70  2  0
 69 74  1  0
 69 68  1  0
 70 71  1  0
 71 72  2  0
 72 73  1  0
 73 74  2  0
 72 75  1  0
 75 76  1  0
 75 77  2  0
 65 66  1  0
 62 67  1  0
 66 67  2  0
 58 59  2  0
 65 68  1  0
 54 50  1  0
 54 55  1  0
 50 51  2  0
 50 52  1  0
 55 56  1  0
 56 57  1  0
 60 57  1  0
 52 49  1  0
 49 45  1  0
 49 80  1  0
 45 46  2  0
 45 47  1  0
 80 81  1  0
 81 82  1  0
 82 83  2  0
 82 84  1  0
 47  1  1  0
  1  2  1  0
  1 85  1  0
  2  3  2  0
  2  4  1  0
 85 86  1  0
 86 87  2  0
 86 88  1  0
  4  6  1  0
  6  7  1  0
  6 40  1  0
  7  8  2  0
  7  9  1  0
 40 41  1  0
 41 42  1  0
  9 11  1  0
 11 12  1  0
 11 36  1  0
 12 13  2  0
 12 14  1  0
 36 37  1  0
 37 38  1  0
 37 39  1  0
 14 16  1  0
 16 17  1  0
 16 30  1  0
 17 18  2  0
 17 19  1  0
 30 31  1  0
 31 32  1  0
 32 33  1  0
 32 34  2  0
 14 15  1  0
 24 20  1  0
 24 25  1  0
 25 26  2  0
 25 27  1  0
 19 20  1  0
 20 21  1  0
 21 22  1  0
 22 23  1  0
 19 23  1  0
 76 78  1  0
 76 79  1  0
 60 61  1  0
 52 53  1  0
 47 48  1  0
  4  5  1  0
 42 43  1  0
 42 44  1  0
  9 10  1  0
 33 35  1  0
 27 28  1  0
 27 29  1  0
M  CHG 1  84  -1
M  CHG 1  88  -1
M  END
> <minimizedAffinity>
-9.70377

> <CNNscore>
0.4787915647

> <CNNaffinity>
7.8130974770

> <CNN_VS>
3.7408452034

> <CNNaffinity_variance>
1.8852367401

$$$$
mmp2_crystal_ligand


 88 90  0  0  0  0  0  0  0  0999 V2000
   49.4461  -58.7500   19.6384 C   0  0  0  0  0  0  0  0  0  0  0  0
   50.0342  -60.1584   19.5590 C   0  0  0  0  0  0  0  0  0  0  0  0
   50.6855  -60.5595   20.4706 O   0  0  0  0  0  0  0  0  0  0  0  0
   49.7793  -60.8922   18.4731 N   0  0  0  0  0  0  0  0  0  0  0  0
   49.2754  -60.4236   17.7690 H   0  0  0  0  0  0  0  0  0  0  0  0
   50.1245  -62.2729   18.1588 C   0  0  0  0  0  0  0  0  0  0  0  0
   50.5708  -62.2758   16.7267 C   0  0  0  0  0  0  0  0  0  0  0  0
   51.3268  -61.4115   16.3462 O   0  0  0  0  0  0  0  0  0  0  0  0
   50.1363  -63.3062   15.9987 N   0  0  0  0  0  0  0  0  0  0  0  0
   49.4926  -63.9302   16.4056 H   0  0  0  0  0  0  0  0  0  0  0  0
   50.5622  -63.5461   14.6549 C   0  0  0  0  0  0  0  0  0  0  0  0
   52.0355  -63.7711   14.4233 C   0  0  0  0  0  0  0  0  0  0  0  0
   52.7159  -62.8200   14.1133 O   0  0  0  0  0  0  0  0  0  0  0  0
   52.4842  -65.0490   14.5526 N   0  0  0  0  0  0  0  0  0  0  0  0
   51.6235  -66.1837   14.8985 C   0  0  0  0  0  0  0  0  0  0  0  0
   53.8977  -65.3373   14.2886 C   0  0  0  0  0  0  0  0  0  0  0  0
   54.0342  -66.1255   13.0340 C   0  0  0  0  0  0  0  0  0  0  0  0
   54.9745  -66.8952   12.8612 O   0  0  0  0  0  0  0  0  0  0  0  0
   53.0466  -66.0445   12.1401 N   0  0  0  0  0  0  0  0  0  0  0  0
   53.1069  -66.8044   10.8793 C   0  0  0  0  0  0  0  0  0  0  0  0
   51.6798  -66.8463   10.4019 C   0  0  0  0  0  0  0  0  0  0  0  0
   51.1224  -65.5037   10.8751 C   0  0  0  0  0  0  0  0  0  0  0  0
   51.8707  -65.1980   12.1926 C   0  0  0  0  0  0  0  0  0  0  0  0
   53.9809  -65.9577    9.9127 C   0  0  0  0  0  0  0  0  0  0  0  0
   55.3802  -66.5342    9.9403 C   0  0  0  0  0  0  0  0  0  0  0  0
   55.6239  -67.7309    9.6260 O   0  0  0  0  0  0  0  0  0  0  0  0
   56.2993  -65.6440   10.3573 N   0  0  0  0  0  0  0  0  0  0  0  0
   56.0273  -64.7254   10.5845 H   0  0  0  0  0  0  0  0  0  0  0  0
   57.2436  -65.9112   10.4352 H   0  0  0  0  0  0  0  0  0  0  0  0
   54.5335  -66.0350   15.4849 C   0  0  0  0  0  0  0  0  0  0  0  0
   54.4356  -65.1494   16.7295 C   0  0  0  0  0  0  0  0  0  0  0  0
   53.7264  -65.9241   17.8248 C   0  0  0  0  0  0  0  0  0  0  0  0
   54.0928  -67.0647   18.0744 O   0  0  0  0  0  0  0  0  0  0  0  0
   52.7774  -65.4369   18.4622 O   0  0  0  0  0  0  0  0  0  0  0  0
   54.8073  -67.4417   17.5998 H   0  0  0  0  0  0  0  0  0  0  0  0
   50.2241  -62.2683   13.8916 C   0  0  0  0  0  0  0  0  0  0  0  0
   49.0544  -62.3915   12.9106 C   0  0  0  0  0  0  0  0  0  0  0  0
   49.5707  -62.5968   11.5117 C   0  0  0  0  0  0  0  0  0  0  0  0
   48.1101  -63.5189   13.3382 C   0  0  0  0  0  0  0  0  0  0  0  0
   48.9683  -63.1958   18.4204 C   0  0  0  0  0  0  0  0  0  0  0  0
   48.8440  -63.7625   19.8320 C   0  0  0  0  0  0  0  0  0  0  0  0
   47.4761  -63.6569   20.3472 N   0  0  0  0  0  0  0  0  0  0  0  0
   47.2041  -62.6748   20.3908 H   0  0  0  0  0  0  0  0  0  0  0  0
   47.4324  -64.0636   21.2815 H   0  0  0  0  0  0  0  0  0  0  0  0
   50.4831  -57.0257   20.9513 C   0  0  0  0  0  0  0  0  0  0  0  0
   49.8348  -57.4027   21.9453 O   0  0  0  0  0  0  0  0  0  0  0  0
   50.4060  -57.6533   19.7567 N   0  0  0  0  0  0  0  0  0  0  0  0
   50.9723  -57.3833   18.9981 H   0  0  0  0  0  0  0  0  0  0  0  0
   51.4178  -55.8626   21.0710 C   0  0  0  0  0  0  0  0  0  0  0  0
   51.5912  -53.7514   22.2659 C   0  0  0  0  0  0  0  0  0  0  0  0
   52.1546  -53.1247   21.3790 O   0  0  0  0  0  0  0  0  0  0  0  0
   51.1432  -55.0213   22.2097 N   0  0  0  0  0  0  0  0  0  0  0  0
   50.6183  -55.3816   22.9606 H   0  0  0  0  0  0  0  0  0  0  0  0
   51.2659  -53.0250   23.5473 C   0  0  0  0  0  0  0  0  0  0  0  0
   52.4855  -53.1632   24.5042 C   0  0  0  0  0  0  0  0  0  0  0  0
   52.0526  -52.8673   25.9711 C   0  0  0  0  0  0  0  0  0  0  0  0
   51.5295  -51.4555   26.1916 C   0  0  0  0  0  0  0  0  0  0  0  0
   52.1886  -49.5504   24.7372 C   0  0  0  0  0  0  0  0  0  0  0  0
   51.0742  -49.3155   24.2267 O   0  0  0  0  0  0  0  0  0  0  0  0
   52.5059  -50.4926   25.6633 N   0  0  0  0  0  0  0  0  0  0  0  0
   53.4318  -50.5321   25.9954 H   0  0  0  0  0  0  0  0  0  0  0  0
   53.3019  -48.6178   24.3078 C   0  0  0  0  0  0  0  0  0  0  0  0
   53.6819  -48.4752   23.0079 C   0  0  0  0  0  0  0  0  0  0  0  0
   54.7333  -47.5992   22.7193 C   0  0  0  0  0  0  0  0  0  0  0  0
   55.3796  -46.8334   23.7264 C   0  0  0  0  0  0  0  0  0  0  0  0
   54.9716  -46.9795   24.9978 C   0  0  0  0  0  0  0  0  0  0  0  0
   53.9302  -47.8527   25.2984 C   0  0  0  0  0  0  0  0  0  0  0  0
   56.4262  -45.9973   23.4755 O   0  0  0  0  0  0  0  0  0  0  0  0
   57.5977  -46.0378   24.2132 C   0  0  0  0  0  0  0  0  0  0  0  0
   58.4361  -44.9084   24.2344 C   0  0  0  0  0  0  0  0  0  0  0  0
   59.6442  -44.9379   24.9299 C   0  0  0  0  0  0  0  0  0  0  0  0
   59.9992  -46.0531   25.6594 C   0  0  0  0  0  0  0  0  0  0  0  0
   59.1778  -47.1803   25.6653 C   0  0  0  0  0  0  0  0  0  0  0  0
   57.9810  -47.2006   24.9306 C   0  0  0  0  0  0  0  0  0  0  0  0
   61.3115  -46.0706   26.4196 C   0  0  0  0  0  0  0  0  0  0  0  0
   62.4866  -46.3209   25.8071 N   0  0  0  0  0  0  0  0  0  0  0  0
   61.2601  -45.8324   27.6051 O   0  0  0  0  0  0  0  0  0  0  0  0
   62.5075  -46.5125   24.8416 H   0  0  0  0  0  0  0  0  0  0  0  0
   63.3236  -46.3119   26.3253 H   0  0  0  0  0  0  0  0  0  0  0  0
   52.9338  -56.2938   21.1886 C   0  0  0  0  0  0  0  0  0  0  0  0
   53.3274  -56.5879   22.6349 C   0  0  0  0  0  0  0  0  0  0  0  0
   53.4307  -58.0802   23.0311 C   0  0  0  0  0  0  0  0  0  0  0  0
   53.7688  -58.2393   24.2308 O   0  0  0  0  0  0  0  0  0  0  0  0
   53.1854  -59.0856   22.2528 O   0  0  0  0  0  0  0  0  0  0  0  0
   48.5258  -58.4057   18.4680 C   0  0  0  0  0  0  0  0  0  0  0  0
   48.0194  -56.9474   18.5620 C   0  0  0  0  0  0  0  0  0  0  0  0
   48.4187  -56.1671   17.6815 O   0  0  0  0  0  0  0  0  0  0  0  0
   47.2067  -56.5491   19.4616 O   0  0  0  0  0  0  0  0  0  0  0  0
 58 62  1  0
 58 60  1  0
 62 63  2  0
 63 64  1  0
 64 65  2  0
 69 70  2  0
 69 74  1  0
 69 68  1  0
 70 71  1  0
 71 72  2  0
 72 73  1  0
 73 74  2  0
 72 75  1  0
 75 76  1  0
 75 77  2  0
 65 66  1  0
 62 67  1  0
 66 67  2  0
 58 59  2  0
 65 68  1  0
 54 50  1  0
 54 55  1  0
 50 51  2  0
 50 52  1  0
 55 56  1  0
 56 57  1  0
 60 57  1  0
 52 49  1  0
 49 45  1  0
 49 80  1  0
 45 46  2  0
 45 47  1  0
 80 81  1  0
 81 82  1  0
 82 83  2  0
 82 84  1  0
 47  1  1  0
  1  2  1  0
  1 85  1  0
  2  3  2  0
  2  4  1  0
 85 86  1  0
 86 87  2  0
 86 88  1  0
  4  6  1  0
  6  7  1  0
  6 40  1  0
  7  8  2  0
  7  9  1  0
 40 41  1  0
 41 42  1  0
  9 11  1  0
 11 12  1  0
 11 36  1  0
 12 13  2  0
 12 14  1  0
 36 37  1  0
 37 38  1  0
 37 39  1  0
 14 16  1  0
 16 17  1  0
 16 30  1  0
 17 18  2  0
 17 19  1  0
 30 31  1  0
 31 32  1  0
 32 33  1  0
 32 34  2  0
 14 15  1  0
 24 20  1  0
 24 25  1  0
 25 26  2  0
 25 27  1  0
 19 20  1  0
 20 21  1  0
 21 22  1  0
 22 23  1  0
 19 23  1  0
 76 78  1  0
 76 79  1  0
 60 61  1  0
 52 53  1  0
 47 48  1  0
  4  5  1  0
 42 43  1  0
 42 44  1  0
  9 10  1  0
 33 35  1  0
 27 28  1  0
 27 29  1  0
M  CHG 1  84  -1
M  CHG 1  88  -1
M  END
> <minimizedAffinity>
-9.59771

> <CNNscore>
0.4390924871

> <CNNaffinity>
7.9153418541

> <CNN_VS>
3.4755671024

> <CNNaffinity_variance>
1.5827537775

$$$$
mmp2_crystal_ligand


 88 90  0  0  0  0  0  0  0  0999 V2000
   51.7347  -56.4829   20.9980 C   0  0  0  0  0  0  0  0  0  0  0  0
   50.4224  -57.2354   20.7798 C   0  0  0  0  0  0  0  0  0  0  0  0
   49.5001  -56.9973   21.4931 O   0  0  0  0  0  0  0  0  0  0  0  0
   50.3572  -58.1214   19.7833 N   0  0  0  0  0  0  0  0  0  0  0  0
   51.2053  -58.2648   19.3042 H   0  0  0  0  0  0  0  0  0  0  0  0
   49.2369  -58.9114   19.2881 C   0  0  0  0  0  0  0  0  0  0  0  0
   49.7701  -60.2946   19.0598 C   0  0  0  0  0  0  0  0  0  0  0  0
   50.2734  -60.8894   19.9852 O   0  0  0  0  0  0  0  0  0  0  0  0
   49.5689  -60.7859   17.8356 N   0  0  0  0  0  0  0  0  0  0  0  0
   49.1809  -60.1948   17.1505 H   0  0  0  0  0  0  0  0  0  0  0  0
   49.8905  -62.1311   17.4726 C   0  0  0  0  0  0  0  0  0  0  0  0
   51.3055  -62.4118   17.0321 C   0  0  0  0  0  0  0  0  0  0  0  0
   52.0449  -61.4709   16.8549 O   0  0  0  0  0  0  0  0  0  0  0  0
   51.6346  -63.7173   16.8360 N   0  0  0  0  0  0  0  0  0  0  0  0
   50.7015  -64.8308   17.0298 C   0  0  0  0  0  0  0  0  0  0  0  0
   52.9809  -64.0478   16.3575 C   0  0  0  0  0  0  0  0  0  0  0  0
   52.9020  -65.0352   15.2472 C   0  0  0  0  0  0  0  0  0  0  0  0
   53.0353  -66.2383   15.4504 O   0  0  0  0  0  0  0  0  0  0  0  0
   52.5820  -64.5803   14.0341 N   0  0  0  0  0  0  0  0  0  0  0  0
   52.4748  -65.5001   12.8882 C   0  0  0  0  0  0  0  0  0  0  0  0
   51.6563  -64.7413   11.8779 C   0  0  0  0  0  0  0  0  0  0  0  0
   52.0802  -63.2917   12.1150 C   0  0  0  0  0  0  0  0  0  0  0  0
   52.3842  -63.2026   13.6279 C   0  0  0  0  0  0  0  0  0  0  0  0
   53.9254  -65.7070   12.3706 C   0  0  0  0  0  0  0  0  0  0  0  0
   53.9359  -66.9706   11.5373 C   0  0  0  0  0  0  0  0  0  0  0  0
   54.2150  -66.9662   10.3075 O   0  0  0  0  0  0  0  0  0  0  0  0
   53.5925  -68.0617   12.2463 N   0  0  0  0  0  0  0  0  0  0  0  0
   53.3888  -67.9811   13.2061 H   0  0  0  0  0  0  0  0  0  0  0  0
   53.5451  -68.9406   11.8051 H   0  0  0  0  0  0  0  0  0  0  0  0
   53.8523  -64.5363   17.5083 C   0  0  0  0  0  0  0  0  0  0  0  0
   52.9792  -65.0857   18.6391 C   0  0  0  0  0  0  0  0  0  0  0  0
   53.2128  -66.5807   18.7534 C   0  0  0  0  0  0  0  0  0  0  0  0
   54.0594  -67.1030   18.0406 O   0  0  0  0  0  0  0  0  0  0  0  0
   52.5589  -67.2875   19.5389 O   0  0  0  0  0  0  0  0  0  0  0  0
   54.5581  -66.5793   17.4448 H   0  0  0  0  0  0  0  0  0  0  0  0
   49.0207  -62.4385   16.2566 C   0  0  0  0  0  0  0  0  0  0  0  0
   47.5359  -62.6562   16.5622 C   0  0  0  0  0  0  0  0  0  0  0  0
   46.7142  -62.4420   15.3194 C   0  0  0  0  0  0  0  0  0  0  0  0
   47.3079  -64.0477   17.1603 C   0  0  0  0  0  0  0  0  0  0  0  0
   48.6404  -58.2957   18.0542 C   0  0  0  0  0  0  0  0  0  0  0  0
   48.0509  -56.8955   18.1982 C   0  0  0  0  0  0  0  0  0  0  0  0
   47.2627  -56.7556   19.4258 N   0  0  0  0  0  0  0  0  0  0  0  0
   46.4819  -57.4115   19.4051 H   0  0  0  0  0  0  0  0  0  0  0  0
   46.9047  -55.8029   19.4933 H   0  0  0  0  0  0  0  0  0  0  0  0
   51.9278  -54.7421   22.6426 C   0  0  0  0  0  0  0  0  0  0  0  0
   51.5376  -53.9127   21.8000 O   0  0  0  0  0  0  0  0  0  0  0  0
   52.0198  -56.0626   22.3692 N   0  0  0  0  0  0  0  0  0  0  0  0
   52.2684  -56.7142   23.0641 H   0  0  0  0  0  0  0  0  0  0  0  0
   52.2745  -54.2889   24.0266 C   0  0  0  0  0  0  0  0  0  0  0  0
   52.2510  -51.8761   24.3306 C   0  0  0  0  0  0  0  0  0  0  0  0
   53.3531  -51.6548   23.8479 O   0  0  0  0  0  0  0  0  0  0  0  0
   51.6180  -53.0634   24.4097 N   0  0  0  0  0  0  0  0  0  0  0  0
   50.6894  -53.0946   24.7353 H   0  0  0  0  0  0  0  0  0  0  0  0
   51.4449  -50.6990   24.8207 C   0  0  0  0  0  0  0  0  0  0  0  0
   51.3470  -50.7922   26.3711 C   0  0  0  0  0  0  0  0  0  0  0  0
   52.6768  -50.3085   27.0226 C   0  0  0  0  0  0  0  0  0  0  0  0
   52.7295  -48.8111   27.2888 C   0  0  0  0  0  0  0  0  0  0  0  0
   54.1741  -48.0530   25.4134 C   0  0  0  0  0  0  0  0  0  0  0  0
   53.3655  -48.2249   24.4783 O   0  0  0  0  0  0  0  0  0  0  0  0
   53.9805  -48.2688   26.7408 N   0  0  0  0  0  0  0  0  0  0  0  0
   54.7114  -48.0519   27.3637 H   0  0  0  0  0  0  0  0  0  0  0  0
   55.5116  -47.4698   25.0079 C   0  0  0  0  0  0  0  0  0  0  0  0
   56.6966  -47.9528   25.4738 C   0  0  0  0  0  0  0  0  0  0  0  0
   57.8758  -47.3318   25.0495 C   0  0  0  0  0  0  0  0  0  0  0  0
   57.8735  -46.2520   24.1263 C   0  0  0  0  0  0  0  0  0  0  0  0
   56.6914  -45.8081   23.6681 C   0  0  0  0  0  0  0  0  0  0  0  0
   55.5107  -46.4142   24.0875 C   0  0  0  0  0  0  0  0  0  0  0  0
   59.0057  -45.6099   23.7220 O   0  0  0  0  0  0  0  0  0  0  0  0
   60.1053  -45.4586   24.5503 C   0  0  0  0  0  0  0  0  0  0  0  0
   60.8521  -44.2679   24.4908 C   0  0  0  0  0  0  0  0  0  0  0  0
   61.9911  -44.1077   25.2789 C   0  0  0  0  0  0  0  0  0  0  0  0
   62.3605  -45.0895   26.1743 C   0  0  0  0  0  0  0  0  0  0  0  0
   61.6279  -46.2732   26.2617 C   0  0  0  0  0  0  0  0  0  0  0  0
   60.5074  -46.4865   25.4423 C   0  0  0  0  0  0  0  0  0  0  0  0
   63.5962  -44.9006   27.0332 C   0  0  0  0  0  0  0  0  0  0  0  0
   63.8713  -43.7268   27.6376 N   0  0  0  0  0  0  0  0  0  0  0  0
   64.3212  -45.8604   27.1672 O   0  0  0  0  0  0  0  0  0  0  0  0
   63.2690  -42.9575   27.5161 H   0  0  0  0  0  0  0  0  0  0  0  0
   64.6744  -43.6391   28.2002 H   0  0  0  0  0  0  0  0  0  0  0  0
   51.9159  -55.3548   25.1372 C   0  0  0  0  0  0  0  0  0  0  0  0
   50.4141  -55.6280   25.1946 C   0  0  0  0  0  0  0  0  0  0  0  0
   49.8176  -55.9073   26.5949 C   0  0  0  0  0  0  0  0  0  0  0  0
   49.6796  -54.8620   27.2784 O   0  0  0  0  0  0  0  0  0  0  0  0
   49.4660  -57.0687   27.0466 O   0  0  0  0  0  0  0  0  0  0  0  0
   52.9646  -57.2448   20.5059 C   0  0  0  0  0  0  0  0  0  0  0  0
   53.7119  -57.9221   21.6785 C   0  0  0  0  0  0  0  0  0  0  0  0
   53.3192  -59.0557   22.0013 O   0  0  0  0  0  0  0  0  0  0  0  0
   54.7040  -57.3851   22.2748 O   0  0  0  0  0  0  0  0  0  0  0  0
 58 62  1  0
 58 60  1  0
 62 63  2  0
 63 64  1  0
 64 65  2  0
 69 70  2  0
 69 74  1  0
 69 68  1  0
 70 71  1  0
 71 72  2  0
 72 73  1  0
 73 74  2  0
 72 75  1  0
 75 76  1  0
 75 77  2  0
 65 66  1  0
 62 67  1  0
 66 67  2  0
 58 59  2  0
 65 68  1  0
 54 50  1  0
 54 55  1  0
 50 51  2  0
 50 52  1  0
 55 56  1  0
 56 57  1  0
 60 57  1  0
 52 49  1  0
 49 45  1  0
 49 80  1  0
 45 46  2  0
 45 47  1  0
 80 81  1  0
 81 82  1  0
 82 83  2  0
 82 84  1  0
 47  1  1  0
  1  2  1  0
  1 85  1  0
  2  3  2  0
  2  4  1  0
 85 86  1  0
 86 87  2  0
 86 88  1  0
  4  6  1  0
  6  7  1  0
  6 40  1  0
  7  8  2  0
  7  9  1  0
 40 41  1  0
 41 42  1  0
  9 11  1  0
 11 12  1  0
 11 36  1  0
 12 13  2  0
 12 14  1  0
 36 37  1  0
 37 38  1  0
 37 39  1  0
 14 16  1  0
 16 17  1  0
 16 30  1  0
 17 18  2  0
 17 19  1  0
 30 31  1  0
 31 32  1  0
 32 33  1  0
 32 34  2  0
 14 15  1  0
 24 20  1  0
 24 25  1  0
 25 26  2  0
 25 27  1  0
 19 20  1  0
 20 21  1  0
 21 22  1  0
 22 23  1  0
 19 23  1  0
 76 78  1  0
 76 79  1  0
 60 61  1  0
 52 53  1  0
 47 48  1  0
  4  5  1  0
 42 43  1  0
 42 44  1  0
  9 10  1  0
 33 35  1  0
 27 28  1  0
 27 29  1  0
M  CHG 1  84  -1
M  CHG 1  88  -1
M  END
> <minimizedAffinity>
-9.48092

> <CNNscore>
0.4382235110

> <CNNaffinity>
7.9530625343

> <CNN_VS>
3.4852190018

> <CNNaffinity_variance>
1.5955668688

$$$$
mmp2_crystal_ligand


 88 90  0  0  0  0  0  0  0  0999 V2000
   49.1421  -59.0234   19.3753 C   0  0  0  0  0  0  0  0  0  0  0  0
   49.6837  -60.3519   18.8485 C   0  0  0  0  0  0  0  0  0  0  0  0
   48.9160  -61.1547   18.4217 O   0  0  0  0  0  0  0  0  0  0  0  0
   51.0033  -60.5536   18.8730 N   0  0  0  0  0  0  0  0  0  0  0  0
   51.5214  -59.8346   19.3018 H   0  0  0  0  0  0  0  0  0  0  0  0
   51.8028  -61.6632   18.3692 C   0  0  0  0  0  0  0  0  0  0  0  0
   51.2832  -61.9614   16.9940 C   0  0  0  0  0  0  0  0  0  0  0  0
   51.3633  -61.1093   16.1392 O   0  0  0  0  0  0  0  0  0  0  0  0
   50.8316  -63.2043   16.8148 N   0  0  0  0  0  0  0  0  0  0  0  0
   50.7795  -63.8019   17.5954 H   0  0  0  0  0  0  0  0  0  0  0  0
   50.4199  -63.7083   15.5416 C   0  0  0  0  0  0  0  0  0  0  0  0
   51.5016  -64.0551   14.5494 C   0  0  0  0  0  0  0  0  0  0  0  0
   51.9944  -63.1570   13.9058 O   0  0  0  0  0  0  0  0  0  0  0  0
   51.8208  -65.3724   14.4321 N   0  0  0  0  0  0  0  0  0  0  0  0
   51.1790  -66.4384   15.2065 C   0  0  0  0  0  0  0  0  0  0  0  0
   52.8289  -65.7754   13.4461 C   0  0  0  0  0  0  0  0  0  0  0  0
   52.2447  -66.7497   12.4850 C   0  0  0  0  0  0  0  0  0  0  0  0
   52.2659  -67.9568   12.7056 O   0  0  0  0  0  0  0  0  0  0  0  0
   51.6065  -66.2626   11.4190 N   0  0  0  0  0  0  0  0  0  0  0  0
   50.9937  -67.1660   10.4296 C   0  0  0  0  0  0  0  0  0  0  0  0
   50.0017  -66.3000    9.6999 C   0  0  0  0  0  0  0  0  0  0  0  0
   50.6817  -64.9309    9.6967 C   0  0  0  0  0  0  0  0  0  0  0  0
   51.4824  -64.8750   11.0177 C   0  0  0  0  0  0  0  0  0  0  0  0
   52.1436  -67.5989    9.4780 C   0  0  0  0  0  0  0  0  0  0  0  0
   52.8647  -66.3442    9.0344 C   0  0  0  0  0  0  0  0  0  0  0  0
   52.4649  -65.6421    8.0663 O   0  0  0  0  0  0  0  0  0  0  0  0
   53.9685  -66.0958    9.7632 N   0  0  0  0  0  0  0  0  0  0  0  0
   54.2131  -66.6942   10.5057 H   0  0  0  0  0  0  0  0  0  0  0  0
   54.5314  -65.3157    9.5538 H   0  0  0  0  0  0  0  0  0  0  0  0
   54.0702  -66.3198   14.1426 C   0  0  0  0  0  0  0  0  0  0  0  0
   55.1354  -66.6974   13.1102 C   0  0  0  0  0  0  0  0  0  0  0  0
   55.7989  -67.9911   13.5447 C   0  0  0  0  0  0  0  0  0  0  0  0
   55.0995  -68.9735   13.7523 O   0  0  0  0  0  0  0  0  0  0  0  0
   57.0280  -68.0738   13.7084 O   0  0  0  0  0  0  0  0  0  0  0  0
   54.1717  -68.9221   13.6320 H   0  0  0  0  0  0  0  0  0  0  0  0
   49.6291  -62.5733   14.8963 C   0  0  0  0  0  0  0  0  0  0  0  0
   48.1950  -62.9311   14.4951 C   0  0  0  0  0  0  0  0  0  0  0  0
   48.1093  -64.3867   14.1214 C   0  0  0  0  0  0  0  0  0  0  0  0
   47.2171  -62.5753   15.6188 C   0  0  0  0  0  0  0  0  0  0  0  0
   51.7387  -62.8445   19.2953 C   0  0  0  0  0  0  0  0  0  0  0  0
   51.9767  -62.5720   20.7779 C   0  0  0  0  0  0  0  0  0  0  0  0
   50.7202  -62.4620   21.5242 N   0  0  0  0  0  0  0  0  0  0  0  0
   50.1741  -61.6824   21.1576 H   0  0  0  0  0  0  0  0  0  0  0  0
   50.9237  -62.3005   22.5106 H   0  0  0  0  0  0  0  0  0  0  0  0
   50.6497  -57.5660   20.5483 C   0  0  0  0  0  0  0  0  0  0  0  0
   50.4724  -58.2302   21.5864 O   0  0  0  0  0  0  0  0  0  0  0  0
   50.0742  -57.8968   19.3708 N   0  0  0  0  0  0  0  0  0  0  0  0
   50.2743  -57.3999   18.5448 H   0  0  0  0  0  0  0  0  0  0  0  0
   51.5602  -56.3780   20.5722 C   0  0  0  0  0  0  0  0  0  0  0  0
   51.7703  -54.2383   21.7090 C   0  0  0  0  0  0  0  0  0  0  0  0
   52.2463  -53.6168   20.7689 O   0  0  0  0  0  0  0  0  0  0  0  0
   51.3528  -55.5199   21.7126 N   0  0  0  0  0  0  0  0  0  0  0  0
   50.8976  -55.8770   22.5090 H   0  0  0  0  0  0  0  0  0  0  0  0
   51.5265  -53.4932   22.9978 C   0  0  0  0  0  0  0  0  0  0  0  0
   52.9084  -53.1324   23.6162 C   0  0  0  0  0  0  0  0  0  0  0  0
   52.9627  -51.6137   23.9586 C   0  0  0  0  0  0  0  0  0  0  0  0
   53.6608  -51.2978   25.2734 C   0  0  0  0  0  0  0  0  0  0  0  0
   54.3678  -48.9296   25.0076 C   0  0  0  0  0  0  0  0  0  0  0  0
   53.2593  -48.3859   25.1906 O   0  0  0  0  0  0  0  0  0  0  0  0
   54.6693  -50.2539   25.0440 N   0  0  0  0  0  0  0  0  0  0  0  0
   55.6059  -50.5265   24.9107 H   0  0  0  0  0  0  0  0  0  0  0  0
   55.5223  -47.9759   24.7816 C   0  0  0  0  0  0  0  0  0  0  0  0
   56.7170  -48.1018   25.4231 C   0  0  0  0  0  0  0  0  0  0  0  0
   57.7133  -47.1575   25.1552 C   0  0  0  0  0  0  0  0  0  0  0  0
   57.5301  -46.1088   24.2144 C   0  0  0  0  0  0  0  0  0  0  0  0
   56.3484  -46.0197   23.5820 C   0  0  0  0  0  0  0  0  0  0  0  0
   55.3469  -46.9500   23.8444 C   0  0  0  0  0  0  0  0  0  0  0  0
   58.4730  -45.1585   23.9591 O   0  0  0  0  0  0  0  0  0  0  0  0
   59.7365  -45.2003   24.5248 C   0  0  0  0  0  0  0  0  0  0  0  0
   60.6333  -44.1438   24.2830 C   0  0  0  0  0  0  0  0  0  0  0  0
   61.9274  -44.1826   24.8007 C   0  0  0  0  0  0  0  0  0  0  0  0
   62.3209  -45.2269   25.6109 C   0  0  0  0  0  0  0  0  0  0  0  0
   61.4449  -46.2793   25.8768 C   0  0  0  0  0  0  0  0  0  0  0  0
   60.1533  -46.2954   25.3254 C   0  0  0  0  0  0  0  0  0  0  0  0
   63.7281  -45.2540   26.1762 C   0  0  0  0  0  0  0  0  0  0  0  0
   64.2079  -46.3240   26.8423 N   0  0  0  0  0  0  0  0  0  0  0  0
   64.4121  -44.2735   25.9880 O   0  0  0  0  0  0  0  0  0  0  0  0
   63.6355  -47.1122   26.9851 H   0  0  0  0  0  0  0  0  0  0  0  0
   65.1305  -46.3169   27.1857 H   0  0  0  0  0  0  0  0  0  0  0  0
   53.0914  -56.7693   20.5793 C   0  0  0  0  0  0  0  0  0  0  0  0
   53.3564  -58.0005   21.4437 C   0  0  0  0  0  0  0  0  0  0  0  0
   53.6389  -57.7420   22.9430 C   0  0  0  0  0  0  0  0  0  0  0  0
   53.9480  -56.5468   23.1773 O   0  0  0  0  0  0  0  0  0  0  0  0
   53.5581  -58.6233   23.8883 O   0  0  0  0  0  0  0  0  0  0  0  0
   47.8778  -58.5519   18.6580 C   0  0  0  0  0  0  0  0  0  0  0  0
   47.7251  -57.0151   18.7408 C   0  0  0  0  0  0  0  0  0  0  0  0
   47.3126  -56.5593   19.8203 O   0  0  0  0  0  0  0  0  0  0  0  0
   48.0337  -56.2321   17.7816 O   0  0  0  0  0  0  0  0  0  0  0  0
 58 62  1  0
 58 60  1  0
 62 63  2  0
 63 64  1  0
 64 65  2  0
 69 70  2  0
 69 74  1  0
 69 68  1  0
 70 71  1  0
 71 72  2  0
 72 73  1  0
 73 74  2  0
 72 75  1  0
 75 76  1  0
 75 77  2  0
 65 66  1  0
 62 67  1  0
 66 67  2  0
 58 59  2  0
 65 68  1  0
 54 50  1  0
 54 55  1  0
 50 51  2  0
 50 52  1  0
 55 56  1  0
 56 57  1  0
 60 57  1  0
 52 49  1  0
 49 45  1  0
 49 80  1  0
 45 46  2  0
 45 47  1  0
 80 81  1  0
 81 82  1  0
 82 83  2  0
 82 84  1  0
 47  1  1  0
  1  2  1  0
  1 85  1  0
  2  3  2  0
  2  4  1  0
 85 86  1  0
 86 87  2  0
 86 88  1  0
  4  6  1  0
  6  7  1  0
  6 40  1  0
  7  8  2  0
  7  9  1  0
 40 41  1  0
 41 42  1  0
  9 11  1  0
 11 12  1  0
 11 36  1  0
 12 13  2  0
 12 14  1  0
 36 37  1  0
 37 38  1  0
 37 39  1  0
 14 16  1  0
 16 17  1  0
 16 30  1  0
 17 18  2  0
 17 19  1  0
 30 31  1  0
 31 32  1  0
 32 33  1  0
 32 34  2  0
 14 15  1  0
 24 20  1  0
 24 25  1  0
 25 26  2  0
 25 27  1  0
 19 20  1  0
 20 21  1  0
 21 22  1  0
 22 23  1  0
 19 23  1  0
 76 78  1  0
 76 79  1  0
 60 61  1  0
 52 53  1  0
 47 48  1  0
  4  5  1  0
 42 43  1  0
 42 44  1  0
  9 10  1  0
 33 35  1  0
 27 28  1  0
 27 29  1  0
M  CHG 1  84  -1
M  CHG 1  88  -1
M  END
> <minimizedAffinity>
-9.73385

> <CNNscore>
0.4273130298

> <CNNaffinity>
7.5191497803

> <CNN_VS>
3.2130305767

> <CNNaffinity_variance>
1.0993248224

$$$$
