3-((4H-benzo[d][1,3,2]dioxaborinin-2-yl)methyl)-1-(4-(benzyloxy)-3-methoxybenzyl)-2-methoxy-1,2-azaborolidine
     RDKit          3D

 66 70  0  0  0  0  0  0  0  0999 V2000
    2.5521    0.8810    2.1565 C   0  0  0  0  0  0  0  0  0  0  0  0
    2.3721   -0.2003    1.2721 O   0  0  0  0  0  0  0  0  0  0  0  0
    1.9564    0.3292   -0.0382 B   0  0  0  0  0  0  0  0  0  0  0  0
    0.5308    0.7848   -0.3132 N   0  0  0  0  0  0  0  0  0  0  0  0
   -0.3851   -0.3724   -0.2734 C   0  0  0  0  0  0  0  0  0  0  0  0
   -1.8144    0.1025   -0.2359 C   0  0  0  0  0  0  0  0  0  0  0  0
   -2.6656   -0.1030   -1.3295 C   0  0  0  0  0  0  0  0  0  0  0  0
   -3.9815    0.3611   -1.2955 C   0  0  0  0  0  0  0  0  0  0  0  0
   -4.4701    1.0384   -0.1619 C   0  0  0  0  0  0  0  0  0  0  0  0
   -5.7876    1.5223   -0.0862 O   0  0  0  0  0  0  0  0  0  0  0  0
   -6.8008    1.3234   -1.0730 C   0  0  0  0  0  0  0  0  0  0  0  0
   -7.2431   -0.1157   -1.1087 C   0  0  0  0  0  0  0  0  0  0  0  0
   -7.5928   -0.7773    0.0808 C   0  0  0  0  0  0  0  0  0  0  0  0
   -8.0180   -2.1090    0.0477 C   0  0  0  0  0  0  0  0  0  0  0  0
   -8.1085   -2.7853   -1.1719 C   0  0  0  0  0  0  0  0  0  0  0  0
   -7.7772   -2.1297   -2.3610 C   0  0  0  0  0  0  0  0  0  0  0  0
   -7.3502   -0.7983   -2.3322 C   0  0  0  0  0  0  0  0  0  0  0  0
   -3.6223    1.2497    0.9368 C   0  0  0  0  0  0  0  0  0  0  0  0
   -4.1357    1.9290    2.0533 O   0  0  0  0  0  0  0  0  0  0  0  0
   -3.3930    2.2190    3.2332 C   0  0  0  0  0  0  0  0  0  0  0  0
   -2.2950    0.7811    0.8931 C   0  0  0  0  0  0  0  0  0  0  0  0
    0.6350    1.3575   -1.6679 C   0  0  0  0  0  0  0  0  0  0  0  0
    1.8615    0.7665   -2.3847 C   0  0  0  0  0  0  0  0  0  0  0  0
    2.8845    0.3694   -1.3143 C   0  0  0  0  0  0  0  0  0  0  0  0
    4.0366    1.3908   -1.1936 C   0  0  0  0  0  0  0  0  0  0  0  0
    5.3262    0.7701   -0.4829 B   0  0  0  0  0  0  0  0  0  0  0  0
    5.8631    1.3199    0.7801 O   0  0  0  0  0  0  0  0  0  0  0  0
    6.1117    0.2492    1.6779 C   0  0  0  0  0  0  0  0  0  0  0  0
    7.0781   -0.7668    1.0929 C   0  0  0  0  0  0  0  0  0  0  0  0
    7.9867   -1.4699    1.8963 C   0  0  0  0  0  0  0  0  0  0  0  0
    8.8077   -2.4488    1.3269 C   0  0  0  0  0  0  0  0  0  0  0  0
    8.7129   -2.7396   -0.0385 C   0  0  0  0  0  0  0  0  0  0  0  0
    7.7961   -2.0537   -0.8418 C   0  0  0  0  0  0  0  0  0  0  0  0
    6.9771   -1.0685   -0.2817 C   0  0  0  0  0  0  0  0  0  0  0  0
    6.0491   -0.3869   -1.0766 O   0  0  0  0  0  0  0  0  0  0  0  0
    2.9293    0.4845    3.1209 H   0  0  0  0  0  0  0  0  0  0  0  0
    3.3065    1.6117    1.7856 H   0  0  0  0  0  0  0  0  0  0  0  0
    1.5856    1.3939    2.3673 H   0  0  0  0  0  0  0  0  0  0  0  0
   -0.2114   -1.0571   -1.1368 H   0  0  0  0  0  0  0  0  0  0  0  0
   -0.2174   -0.9717    0.6516 H   0  0  0  0  0  0  0  0  0  0  0  0
   -2.3095   -0.6172   -2.2136 H   0  0  0  0  0  0  0  0  0  0  0  0
   -4.6069    0.1918   -2.1600 H   0  0  0  0  0  0  0  0  0  0  0  0
   -7.6775    1.9503   -0.8073 H   0  0  0  0  0  0  0  0  0  0  0  0
   -6.4371    1.6726   -2.0637 H   0  0  0  0  0  0  0  0  0  0  0  0
   -7.5334   -0.2631    1.0320 H   0  0  0  0  0  0  0  0  0  0  0  0
   -8.2796   -2.6157    0.9677 H   0  0  0  0  0  0  0  0  0  0  0  0
   -8.4390   -3.8158   -1.1962 H   0  0  0  0  0  0  0  0  0  0  0  0
   -7.8527   -2.6531   -3.3053 H   0  0  0  0  0  0  0  0  0  0  0  0
   -7.1007   -0.3028   -3.2623 H   0  0  0  0  0  0  0  0  0  0  0  0
   -2.5227    2.8631    2.9872 H   0  0  0  0  0  0  0  0  0  0  0  0
   -3.0496    1.2760    3.7094 H   0  0  0  0  0  0  0  0  0  0  0  0
   -4.0460    2.7610    3.9478 H   0  0  0  0  0  0  0  0  0  0  0  0
   -1.6280    0.9402    1.7303 H   0  0  0  0  0  0  0  0  0  0  0  0
   -0.2841    1.2005   -2.2749 H   0  0  0  0  0  0  0  0  0  0  0  0
    0.7726    2.4574   -1.5720 H   0  0  0  0  0  0  0  0  0  0  0  0
    1.5420   -0.1442   -2.9395 H   0  0  0  0  0  0  0  0  0  0  0  0
    2.2645    1.4871   -3.1289 H   0  0  0  0  0  0  0  0  0  0  0  0
    3.2723   -0.6500   -1.5371 H   0  0  0  0  0  0  0  0  0  0  0  0
    4.3693    1.7027   -2.2061 H   0  0  0  0  0  0  0  0  0  0  0  0
    3.7100    2.3065   -0.6537 H   0  0  0  0  0  0  0  0  0  0  0  0
    6.5448    0.6769    2.6071 H   0  0  0  0  0  0  0  0  0  0  0  0
    5.1658   -0.2621    1.9667 H   0  0  0  0  0  0  0  0  0  0  0  0
    8.0554   -1.2650    2.9573 H   0  0  0  0  0  0  0  0  0  0  0  0
    9.5132   -2.9884    1.9458 H   0  0  0  0  0  0  0  0  0  0  0  0
    9.3467   -3.5014   -0.4737 H   0  0  0  0  0  0  0  0  0  0  0  0
    7.7208   -2.2887   -1.8957 H   0  0  0  0  0  0  0  0  0  0  0  0
  1  2  1  0
  2  3  1  0
  3  4  1  0
  4  5  1  0
  5  6  1  0
  6  7  2  0
  7  8  1  0
  8  9  2  0
  9 10  1  0
 10 11  1  0
 11 12  1  0
 12 13  2  0
 13 14  1  0
 14 15  2  0
 15 16  1  0
 16 17  2  0
  9 18  1  0
 18 19  1  0
 19 20  1  0
 18 21  2  0
  4 22  1  0
 22 23  1  0
 23 24  1  0
 24 25  1  0
 25 26  1  0
 26 27  1  0
 27 28  1  0
 28 29  1  0
 29 30  2  0
 30 31  1  0
 31 32  2  0
 32 33  1  0
 33 34  2  0
 34 35  1  0
 24  3  1  0
 21  6  1  0
 17 12  1  0
 35 26  1  0
 34 29  1  0
  1 36  1  0
  1 37  1  0
  1 38  1  0
  5 39  1  0
  5 40  1  0
  7 41  1  0
  8 42  1  0
 11 43  1  0
 11 44  1  0
 13 45  1  0
 14 46  1  0
 15 47  1  0
 16 48  1  0
 17 49  1  0
 20 50  1  0
 20 51  1  0
 20 52  1  0
 21 53  1  0
 22 54  1  0
 22 55  1  0
 23 56  1  0
 23 57  1  0
 24 58  1  0
 25 59  1  0
 25 60  1  0
 28 61  1  0
 28 62  1  0
 30 63  1  0
 31 64  1  0
 32 65  1  0
 33 66  1  0
M  END
>  <SMILES_raw>  (1) 
COB1N(CC2=CC=C(OCC3=CC=CC=C3)C(OC)=C2)CCC1CB4OCC5=CC=CC=C5O4

>  <Protonation_Method>  (1) 
MolScrub

>  <Target_pH>  (1) 
7.4

$$$$
