N-((3-(4-(benzyloxy)phenyl)-1-phenyl-1H-pyrazol-4yl)methyl)-L-methionin
     RDKit          3D

 64 67  0  0  0  0  0  0  0  0999 V2000
   -3.7253   -1.5982   -1.4414 C   0  0  2  0  0  0  0  0  0  0  0  0
   -2.7297   -0.7140   -0.6773 N   0  0  0  0  0  0  0  0  0  0  0  0
   -2.0320    0.3257   -1.4503 C   0  0  0  0  0  0  0  0  0  0  0  0
   -5.1712   -1.2353   -0.9689 C   0  0  0  0  0  0  0  0  0  0  0  0
   -3.3860   -3.0696   -1.2249 C   0  0  0  0  0  0  0  0  0  0  0  0
   -6.1178   -1.8963   -1.4397 O   0  0  0  0  0  0  0  0  0  0  0  0
   -5.1024   -0.2907   -0.1105 O   0  0  0  0  0  0  0  0  0  0  0  0
   -3.6774   -3.5680    0.1928 C   0  0  0  0  0  0  0  0  0  0  0  0
   -2.9072   -5.1971    0.4637 S   0  0  0  0  0  0  0  0  0  0  0  0
   -4.2007   -6.2458   -0.2566 C   0  0  0  0  0  0  0  0  0  0  0  0
   -1.5705    1.4181   -0.5600 C   0  0  0  0  0  0  0  0  0  0  0  0
   -2.3665    2.2572    0.1983 C   0  0  0  0  0  0  0  0  0  0  0  0
   -0.2484    1.8651   -0.3010 C   0  0  0  0  0  0  0  0  0  0  0  0
   -1.5381    3.1342    0.8609 N   0  0  0  0  0  0  0  0  0  0  0  0
   -0.2430    2.9157    0.5269 N   0  0  0  0  0  0  0  0  0  0  0  0
    1.0043    1.3288   -0.8161 C   0  0  0  0  0  0  0  0  0  0  0  0
   -1.8985    4.1489    1.7894 C   0  0  0  0  0  0  0  0  0  0  0  0
    1.4135    0.0325   -0.4823 C   0  0  0  0  0  0  0  0  0  0  0  0
    1.8206    2.1155   -1.6337 C   0  0  0  0  0  0  0  0  0  0  0  0
   -3.2342    4.3414    2.1720 C   0  0  0  0  0  0  0  0  0  0  0  0
   -0.8985    4.9654    2.3425 C   0  0  0  0  0  0  0  0  0  0  0  0
    2.6259   -0.4745   -0.9686 C   0  0  0  0  0  0  0  0  0  0  0  0
    3.0245    1.6015   -2.1213 C   0  0  0  0  0  0  0  0  0  0  0  0
   -3.5588    5.3373    3.0979 C   0  0  0  0  0  0  0  0  0  0  0  0
   -1.2318    5.9590    3.2644 C   0  0  0  0  0  0  0  0  0  0  0  0
    3.4359    0.3070   -1.7914 C   0  0  0  0  0  0  0  0  0  0  0  0
   -2.5588    6.1437    3.6430 C   0  0  0  0  0  0  0  0  0  0  0  0
    4.6442   -0.0519   -2.3207 O   0  0  0  0  0  0  0  0  0  0  0  0
    5.1784   -1.3434   -2.0135 C   0  0  0  0  0  0  0  0  0  0  0  0
    5.8241   -1.4231   -0.6488 C   0  0  0  0  0  0  0  0  0  0  0  0
    5.8449   -2.6464    0.0396 C   0  0  0  0  0  0  0  0  0  0  0  0
    6.4502   -0.3109   -0.0662 C   0  0  0  0  0  0  0  0  0  0  0  0
    6.4468   -2.7466    1.2962 C   0  0  0  0  0  0  0  0  0  0  0  0
    7.0501   -0.4105    1.1918 C   0  0  0  0  0  0  0  0  0  0  0  0
    7.0453   -1.6277    1.8733 C   0  0  0  0  0  0  0  0  0  0  0  0
   -3.6290   -1.3464   -2.5054 H   0  0  0  0  0  0  0  0  0  0  0  0
   -3.4288   -0.2018   -0.0734 H   0  0  0  0  0  0  0  0  0  0  0  0
   -2.1425   -1.2041   -0.0025 H   0  0  0  0  0  0  0  0  0  0  0  0
   -2.7343    0.7295   -2.1882 H   0  0  0  0  0  0  0  0  0  0  0  0
   -1.2153   -0.1707   -1.9794 H   0  0  0  0  0  0  0  0  0  0  0  0
   -2.3264   -3.2190   -1.4746 H   0  0  0  0  0  0  0  0  0  0  0  0
   -3.9684   -3.6671   -1.9400 H   0  0  0  0  0  0  0  0  0  0  0  0
   -3.2491   -2.8920    0.9385 H   0  0  0  0  0  0  0  0  0  0  0  0
   -4.7509   -3.6326    0.3926 H   0  0  0  0  0  0  0  0  0  0  0  0
   -3.8639   -7.2847   -0.2425 H   0  0  0  0  0  0  0  0  0  0  0  0
   -5.1122   -6.1648    0.3452 H   0  0  0  0  0  0  0  0  0  0  0  0
   -4.4074   -5.9609   -1.2937 H   0  0  0  0  0  0  0  0  0  0  0  0
   -3.4417    2.2916    0.3084 H   0  0  0  0  0  0  0  0  0  0  0  0
    0.8164   -0.5849    0.1855 H   0  0  0  0  0  0  0  0  0  0  0  0
    1.5333    3.1358   -1.8827 H   0  0  0  0  0  0  0  0  0  0  0  0
   -4.0445    3.7341    1.7776 H   0  0  0  0  0  0  0  0  0  0  0  0
    0.1464    4.8421    2.0645 H   0  0  0  0  0  0  0  0  0  0  0  0
    2.9136   -1.4732   -0.6633 H   0  0  0  0  0  0  0  0  0  0  0  0
    3.6560    2.2236   -2.7512 H   0  0  0  0  0  0  0  0  0  0  0  0
   -4.5944    5.4850    3.3994 H   0  0  0  0  0  0  0  0  0  0  0  0
   -0.4512    6.5878    3.6893 H   0  0  0  0  0  0  0  0  0  0  0  0
   -2.8177    6.9179    4.3611 H   0  0  0  0  0  0  0  0  0  0  0  0
    4.4147   -2.1159   -2.1519 H   0  0  0  0  0  0  0  0  0  0  0  0
    5.9548   -1.5486   -2.7579 H   0  0  0  0  0  0  0  0  0  0  0  0
    5.3881   -3.5337   -0.3958 H   0  0  0  0  0  0  0  0  0  0  0  0
    6.4646    0.6452   -0.5839 H   0  0  0  0  0  0  0  0  0  0  0  0
    6.4491   -3.6981    1.8242 H   0  0  0  0  0  0  0  0  0  0  0  0
    7.5198    0.4635    1.6375 H   0  0  0  0  0  0  0  0  0  0  0  0
    7.5087   -1.7049    2.8544 H   0  0  0  0  0  0  0  0  0  0  0  0
  1  2  1  0
  2  3  1  0
  1  4  1  0
  5  1  1  0
  4  6  2  0
  4  7  1  0
  8  5  1  0
  9  8  1  0
 10  9  1  0
  3 11  1  0
 11 12  2  0
 13 11  1  0
 12 14  1  0
 15 13  2  0
 13 16  1  0
 14 17  1  0
 14 15  1  0
 16 18  2  0
 19 16  1  0
 17 20  2  0
 21 17  1  0
 18 22  1  0
 23 19  2  0
 20 24  1  0
 25 21  2  0
 22 26  2  0
 26 23  1  0
 24 27  2  0
 27 25  1  0
 26 28  1  0
 28 29  1  0
 29 30  1  0
 30 31  2  0
 32 30  1  0
 31 33  1  0
 34 32  2  0
 33 35  2  0
 35 34  1  0
  1 36  1  6
  2 37  1  0
  2 38  1  0
  3 39  1  0
  3 40  1  0
  5 41  1  0
  5 42  1  0
  8 43  1  0
  8 44  1  0
 10 45  1  0
 10 46  1  0
 10 47  1  0
 12 48  1  0
 18 49  1  0
 19 50  1  0
 20 51  1  0
 21 52  1  0
 22 53  1  0
 23 54  1  0
 24 55  1  0
 25 56  1  0
 27 57  1  0
 29 58  1  0
 29 59  1  0
 31 60  1  0
 32 61  1  0
 33 62  1  0
 34 63  1  0
 35 64  1  0
M  CHG  2   2   1   7  -1
M  END
>  <SMILES_raw>  (1) 
CSCC[C@@H](C(O)=O)NCC1=CN(C2=CC=CC=C2)N=C1C3=CC=C(OCC4=CC=CC=C4)C=C3

>  <Protonation_Method>  (1) 
MolScrub

>  <Target_pH>  (1) 
7.4

$$$$
N-((3-(4(benzyloxy)phenyl)-1-phenyl-1H-pyrazol-4yl)methyl)-L-phenylalanin
     RDKit          3D

 67 71  0  0  0  0  0  0  0  0999 V2000
   -2.9134   -2.8439    1.1471 C   0  0  2  0  0  0  0  0  0  0  0  0
   -2.1393   -1.5274    1.0064 N   0  0  0  0  0  0  0  0  0  0  0  0
   -2.3122   -0.6076    2.1547 C   0  0  0  0  0  0  0  0  0  0  0  0
   -2.3140   -3.7491    2.2557 C   0  0  0  0  0  0  0  0  0  0  0  0
   -2.7682   -3.6675   -0.1408 C   0  0  0  0  0  0  0  0  0  0  0  0
   -3.0800   -4.6068    2.7479 O   0  0  0  0  0  0  0  0  0  0  0  0
   -1.1215   -3.4104    2.5316 O   0  0  0  0  0  0  0  0  0  0  0  0
   -3.1930   -2.9020   -1.3752 C   0  0  0  0  0  0  0  0  0  0  0  0
   -2.2334   -2.4528   -2.2945 C   0  0  0  0  0  0  0  0  0  0  0  0
   -4.5442   -2.6045   -1.5976 C   0  0  0  0  0  0  0  0  0  0  0  0
   -2.6196   -1.7064   -3.4079 C   0  0  0  0  0  0  0  0  0  0  0  0
   -4.9264   -1.8584   -2.7128 C   0  0  0  0  0  0  0  0  0  0  0  0
   -3.9648   -1.4070   -3.6150 C   0  0  0  0  0  0  0  0  0  0  0  0
   -1.7627    0.7486    1.8874 C   0  0  0  0  0  0  0  0  0  0  0  0
   -2.4271    1.9513    2.0439 C   0  0  0  0  0  0  0  0  0  0  0  0
   -0.4726    1.1229    1.4107 C   0  0  0  0  0  0  0  0  0  0  0  0
   -1.5643    2.9578    1.6721 N   0  0  0  0  0  0  0  0  0  0  0  0
   -0.3895    2.4475    1.2418 N   0  0  0  0  0  0  0  0  0  0  0  0
    0.6550    0.2664    1.0456 C   0  0  0  0  0  0  0  0  0  0  0  0
   -1.7927    4.3623    1.6817 C   0  0  0  0  0  0  0  0  0  0  0  0
    1.0773   -0.7777    1.8726 C   0  0  0  0  0  0  0  0  0  0  0  0
    1.3252    0.4805   -0.1668 C   0  0  0  0  0  0  0  0  0  0  0  0
   -3.0123    4.9008    2.1159 C   0  0  0  0  0  0  0  0  0  0  0  0
   -0.7735    5.2276    1.2517 C   0  0  0  0  0  0  0  0  0  0  0  0
    2.1263   -1.6111    1.4713 C   0  0  0  0  0  0  0  0  0  0  0  0
    2.3806   -0.3506   -0.5611 C   0  0  0  0  0  0  0  0  0  0  0  0
   -3.2043    6.2860    2.1163 C   0  0  0  0  0  0  0  0  0  0  0  0
   -0.9730    6.6096    1.2560 C   0  0  0  0  0  0  0  0  0  0  0  0
    2.7776   -1.4097    0.2522 C   0  0  0  0  0  0  0  0  0  0  0  0
   -2.1872    7.1379    1.6881 C   0  0  0  0  0  0  0  0  0  0  0  0
    3.7922   -2.2879   -0.0042 O   0  0  0  0  0  0  0  0  0  0  0  0
    4.3342   -2.3381   -1.3267 C   0  0  0  0  0  0  0  0  0  0  0  0
    5.4294   -1.3242   -1.5742 C   0  0  0  0  0  0  0  0  0  0  0  0
    5.6636   -0.8559   -2.8761 C   0  0  0  0  0  0  0  0  0  0  0  0
    6.2598   -0.8768   -0.5367 C   0  0  0  0  0  0  0  0  0  0  0  0
    6.6867    0.0600   -3.1281 C   0  0  0  0  0  0  0  0  0  0  0  0
    7.2818    0.0394   -0.7903 C   0  0  0  0  0  0  0  0  0  0  0  0
    7.4936    0.5090   -2.0848 C   0  0  0  0  0  0  0  0  0  0  0  0
   -3.9567   -2.5803    1.3504 H   0  0  0  0  0  0  0  0  0  0  0  0
   -1.1589   -1.8559    1.0561 H   0  0  0  0  0  0  0  0  0  0  0  0
   -2.3034   -1.0735    0.1052 H   0  0  0  0  0  0  0  0  0  0  0  0
   -3.3902   -0.5374    2.3416 H   0  0  0  0  0  0  0  0  0  0  0  0
   -1.8393   -1.0461    3.0383 H   0  0  0  0  0  0  0  0  0  0  0  0
   -1.7315   -4.0101   -0.2631 H   0  0  0  0  0  0  0  0  0  0  0  0
   -3.3725   -4.5821   -0.0767 H   0  0  0  0  0  0  0  0  0  0  0  0
   -1.1790   -2.6867   -2.1558 H   0  0  0  0  0  0  0  0  0  0  0  0
   -5.3106   -2.9609   -0.9113 H   0  0  0  0  0  0  0  0  0  0  0  0
   -1.8724   -1.3673   -4.1217 H   0  0  0  0  0  0  0  0  0  0  0  0
   -5.9772   -1.6375   -2.8850 H   0  0  0  0  0  0  0  0  0  0  0  0
   -4.2662   -0.8335   -4.4883 H   0  0  0  0  0  0  0  0  0  0  0  0
   -3.4284    2.1597    2.3899 H   0  0  0  0  0  0  0  0  0  0  0  0
    0.6138   -0.9676    2.8385 H   0  0  0  0  0  0  0  0  0  0  0  0
    1.0357    1.3088   -0.8118 H   0  0  0  0  0  0  0  0  0  0  0  0
   -3.8315    4.2802    2.4634 H   0  0  0  0  0  0  0  0  0  0  0  0
    0.1862    4.8400    0.9131 H   0  0  0  0  0  0  0  0  0  0  0  0
    2.4353   -2.4285    2.1211 H   0  0  0  0  0  0  0  0  0  0  0  0
    2.8827   -0.1255   -1.4962 H   0  0  0  0  0  0  0  0  0  0  0  0
   -4.1494    6.7034    2.4558 H   0  0  0  0  0  0  0  0  0  0  0  0
   -0.1776    7.2726    0.9241 H   0  0  0  0  0  0  0  0  0  0  0  0
   -2.3398    8.2143    1.6936 H   0  0  0  0  0  0  0  0  0  0  0  0
    4.7790   -3.3339   -1.4424 H   0  0  0  0  0  0  0  0  0  0  0  0
    3.5359   -2.2712   -2.0771 H   0  0  0  0  0  0  0  0  0  0  0  0
    5.0498   -1.2020   -3.7045 H   0  0  0  0  0  0  0  0  0  0  0  0
    6.1106   -1.2367    0.4797 H   0  0  0  0  0  0  0  0  0  0  0  0
    6.8572    0.4203   -4.1392 H   0  0  0  0  0  0  0  0  0  0  0  0
    7.9133    0.3842    0.0245 H   0  0  0  0  0  0  0  0  0  0  0  0
    8.2908    1.2212   -2.2802 H   0  0  0  0  0  0  0  0  0  0  0  0
  1  2  1  0
  2  3  1  0
  1  4  1  0
  1  5  1  0
  4  6  2  0
  4  7  1  0
  5  8  1  0
  8  9  2  0
 10  8  1  0
  9 11  1  0
 12 10  2  0
 11 13  2  0
 13 12  1  0
  3 14  1  0
 14 15  2  0
 16 14  1  0
 15 17  1  0
 18 16  2  0
 16 19  1  0
 17 20  1  0
 17 18  1  0
 19 21  2  0
 22 19  1  0
 20 23  2  0
 24 20  1  0
 21 25  1  0
 26 22  2  0
 23 27  1  0
 28 24  2  0
 25 29  2  0
 29 26  1  0
 27 30  2  0
 30 28  1  0
 29 31  1  0
 31 32  1  0
 32 33  1  0
 33 34  2  0
 35 33  1  0
 34 36  1  0
 37 35  2  0
 36 38  2  0
 38 37  1  0
  1 39  1  1
  2 40  1  0
  2 41  1  0
  3 42  1  0
  3 43  1  0
  5 44  1  0
  5 45  1  0
  9 46  1  0
 10 47  1  0
 11 48  1  0
 12 49  1  0
 13 50  1  0
 15 51  1  0
 21 52  1  0
 22 53  1  0
 23 54  1  0
 24 55  1  0
 25 56  1  0
 26 57  1  0
 27 58  1  0
 28 59  1  0
 30 60  1  0
 32 61  1  0
 32 62  1  0
 34 63  1  0
 35 64  1  0
 36 65  1  0
 37 66  1  0
 38 67  1  0
M  CHG  2   2   1   7  -1
M  END
>  <SMILES_raw>  (2) 
O=C(O)[C@H](CC1=CC=CC=C1)NCC2=CN(C3=CC=CC=C3)N=C2C4=CC=C(OCC5=CC=CC=C5)C=C4

>  <Protonation_Method>  (2) 
MolScrub

>  <Target_pH>  (2) 
7.4

$$$$
N-((3-(4(benzyloxy)phenyl)-1-phenyl-1H-pyrazol-4yl)methyl)-L-tryptophan
     RDKit          3D

 71 76  0  0  0  0  0  0  0  0999 V2000
    3.2254   -0.7292    2.5806 C   0  0  2  0  0  0  0  0  0  0  0  0
    2.3352   -0.0780    1.5121 N   0  0  0  0  0  0  0  0  0  0  0  0
    1.1521    0.6496    2.0038 C   0  0  0  0  0  0  0  0  0  0  0  0
    4.3785    0.2471    2.9634 C   0  0  0  0  0  0  0  0  0  0  0  0
    3.7316   -2.1018    2.1257 C   0  0  0  0  0  0  0  0  0  0  0  0
    4.3003    1.3045    2.2551 O   0  0  0  0  0  0  0  0  0  0  0  0
    5.1420   -0.0980    3.8910 O   0  0  0  0  0  0  0  0  0  0  0  0
    4.1215   -2.1996    0.6766 C   0  0  0  0  0  0  0  0  0  0  0  0
    3.3664   -2.7666   -0.3375 C   0  0  0  0  0  0  0  0  0  0  0  0
    5.3488   -1.7562    0.0819 C   0  0  0  0  0  0  0  0  0  0  0  0
    4.0731   -2.6661   -1.5066 N   0  0  0  0  0  0  0  0  0  0  0  0
    5.2852   -2.0577   -1.2812 C   0  0  0  0  0  0  0  0  0  0  0  0
    6.5119   -1.1276    0.5763 C   0  0  0  0  0  0  0  0  0  0  0  0
    6.3186   -1.7568   -2.1788 C   0  0  0  0  0  0  0  0  0  0  0  0
    7.5483   -0.8088   -0.3098 C   0  0  0  0  0  0  0  0  0  0  0  0
    7.4521   -1.1191   -1.6656 C   0  0  0  0  0  0  0  0  0  0  0  0
    0.5671    1.4897    0.9273 C   0  0  0  0  0  0  0  0  0  0  0  0
    1.1903    2.4914    0.2034 C   0  0  0  0  0  0  0  0  0  0  0  0
   -0.7513    1.4482    0.4014 C   0  0  0  0  0  0  0  0  0  0  0  0
    0.2714    2.9801   -0.7000 N   0  0  0  0  0  0  0  0  0  0  0  0
   -0.9074    2.3211   -0.5949 N   0  0  0  0  0  0  0  0  0  0  0  0
   -1.8471    0.5701    0.7864 C   0  0  0  0  0  0  0  0  0  0  0  0
    0.4368    4.0211   -1.6528 C   0  0  0  0  0  0  0  0  0  0  0  0
   -2.4148    0.6500    2.0652 C   0  0  0  0  0  0  0  0  0  0  0  0
   -2.3288   -0.3753   -0.1308 C   0  0  0  0  0  0  0  0  0  0  0  0
   -0.6630    4.4286   -2.4284 C   0  0  0  0  0  0  0  0  0  0  0  0
    1.6735    4.6579   -1.8233 C   0  0  0  0  0  0  0  0  0  0  0  0
   -3.4627   -0.2039    2.4192 C   0  0  0  0  0  0  0  0  0  0  0  0
   -3.3721   -1.2311    0.2235 C   0  0  0  0  0  0  0  0  0  0  0  0
   -0.5214    5.4653   -3.3558 C   0  0  0  0  0  0  0  0  0  0  0  0
    1.8033    5.7010   -2.7487 C   0  0  0  0  0  0  0  0  0  0  0  0
   -3.9459   -1.1192    1.4868 C   0  0  0  0  0  0  0  0  0  0  0  0
    0.7078    6.1062   -3.5089 C   0  0  0  0  0  0  0  0  0  0  0  0
   -4.9897   -1.9421    1.8230 O   0  0  0  0  0  0  0  0  0  0  0  0
   -6.2420   -1.3345    1.4780 C   0  0  0  0  0  0  0  0  0  0  0  0
   -6.8639   -2.0471    0.2987 C   0  0  0  0  0  0  0  0  0  0  0  0
   -7.0176   -3.4427    0.3071 C   0  0  0  0  0  0  0  0  0  0  0  0
   -7.3073   -1.3250   -0.8180 C   0  0  0  0  0  0  0  0  0  0  0  0
   -7.6064   -4.1009   -0.7735 C   0  0  0  0  0  0  0  0  0  0  0  0
   -7.8944   -1.9874   -1.9009 C   0  0  0  0  0  0  0  0  0  0  0  0
   -8.0493   -3.3712   -1.8752 C   0  0  0  0  0  0  0  0  0  0  0  0
    2.5988   -0.8654    3.4718 H   0  0  0  0  0  0  0  0  0  0  0  0
    2.1630   -0.6662    0.6950 H   0  0  0  0  0  0  0  0  0  0  0  0
    3.0036    0.6668    1.1982 H   0  0  0  0  0  0  0  0  0  0  0  0
    1.4542    1.2780    2.8503 H   0  0  0  0  0  0  0  0  0  0  0  0
    0.4489   -0.1119    2.3591 H   0  0  0  0  0  0  0  0  0  0  0  0
    4.5762   -2.4273    2.7432 H   0  0  0  0  0  0  0  0  0  0  0  0
    2.9329   -2.8338    2.3060 H   0  0  0  0  0  0  0  0  0  0  0  0
    2.3974   -3.2518   -0.3325 H   0  0  0  0  0  0  0  0  0  0  0  0
    3.7692   -3.0108   -2.4076 H   0  0  0  0  0  0  0  0  0  0  0  0
    6.6101   -0.8735    1.6317 H   0  0  0  0  0  0  0  0  0  0  0  0
    6.2455   -1.9960   -3.2357 H   0  0  0  0  0  0  0  0  0  0  0  0
    8.4359   -0.3075    0.0758 H   0  0  0  0  0  0  0  0  0  0  0  0
    8.2626   -0.8495   -2.3348 H   0  0  0  0  0  0  0  0  0  0  0  0
    2.1926    2.8918    0.2751 H   0  0  0  0  0  0  0  0  0  0  0  0
   -2.0634    1.3863    2.7823 H   0  0  0  0  0  0  0  0  0  0  0  0
   -1.8909   -0.4513   -1.1261 H   0  0  0  0  0  0  0  0  0  0  0  0
   -1.6370    3.9552   -2.3142 H   0  0  0  0  0  0  0  0  0  0  0  0
    2.5611    4.3718   -1.2655 H   0  0  0  0  0  0  0  0  0  0  0  0
   -3.9152   -0.1411    3.4047 H   0  0  0  0  0  0  0  0  0  0  0  0
   -3.7454   -1.9679   -0.4847 H   0  0  0  0  0  0  0  0  0  0  0  0
   -1.3706    5.7689   -3.9616 H   0  0  0  0  0  0  0  0  0  0  0  0
    2.7641    6.1946   -2.8796 H   0  0  0  0  0  0  0  0  0  0  0  0
    0.8155    6.9186   -4.2259 H   0  0  0  0  0  0  0  0  0  0  0  0
   -6.1448   -0.2581    1.2840 H   0  0  0  0  0  0  0  0  0  0  0  0
   -6.9051   -1.4438    2.3439 H   0  0  0  0  0  0  0  0  0  0  0  0
   -6.6633   -4.0275    1.1570 H   0  0  0  0  0  0  0  0  0  0  0  0
   -7.1911   -0.2451   -0.8573 H   0  0  0  0  0  0  0  0  0  0  0  0
   -7.7171   -5.1818   -0.7558 H   0  0  0  0  0  0  0  0  0  0  0  0
   -8.2330   -1.4226   -2.7662 H   0  0  0  0  0  0  0  0  0  0  0  0
   -8.5109   -3.8851   -2.7155 H   0  0  0  0  0  0  0  0  0  0  0  0
  1  2  1  0
  2  3  1  0
  1  4  1  0
  1  5  1  0
  4  6  2  0
  4  7  1  0
  5  8  1  0
  8  9  2  0
 10  8  1  0
  9 11  1  0
 12 10  2  0
 10 13  1  0
 11 12  1  0
 14 12  1  0
 13 15  2  0
 16 14  2  0
 15 16  1  0
  3 17  1  0
 17 18  2  0
 19 17  1  0
 18 20  1  0
 21 19  2  0
 19 22  1  0
 20 23  1  0
 20 21  1  0
 22 24  2  0
 25 22  1  0
 23 26  2  0
 27 23  1  0
 24 28  1  0
 29 25  2  0
 26 30  1  0
 31 27  2  0
 28 32  2  0
 32 29  1  0
 30 33  2  0
 33 31  1  0
 32 34  1  0
 34 35  1  0
 35 36  1  0
 36 37  2  0
 38 36  1  0
 37 39  1  0
 40 38  2  0
 39 41  2  0
 41 40  1  0
  1 42  1  1
  2 43  1  0
  2 44  1  0
  3 45  1  0
  3 46  1  0
  5 47  1  0
  5 48  1  0
  9 49  1  0
 11 50  1  0
 13 51  1  0
 14 52  1  0
 15 53  1  0
 16 54  1  0
 18 55  1  0
 24 56  1  0
 25 57  1  0
 26 58  1  0
 27 59  1  0
 28 60  1  0
 29 61  1  0
 30 62  1  0
 31 63  1  0
 33 64  1  0
 35 65  1  0
 35 66  1  0
 37 67  1  0
 38 68  1  0
 39 69  1  0
 40 70  1  0
 41 71  1  0
M  CHG  2   2   1   7  -1
M  END
>  <SMILES_raw>  (3) 
O=C(O)[C@H](CC1=CNC2=C1C=CC=C2)NCC3=CN(C4=CC=CC=C4)N=C3C5=CC=C(OCC6=CC=CC=C6)C=C5

>  <Protonation_Method>  (3) 
MolScrub

>  <Target_pH>  (3) 
7.4

$$$$
N-((3-(4(benzyloxy)phenyl)-1-phenyl-1H-pyrazol-4yl)methyl)-L-tyrosin
     RDKit          3D

 68 72  0  0  0  0  0  0  0  0999 V2000
    3.7239    1.8855   -1.6204 C   0  0  2  0  0  0  0  0  0  0  0  0
    3.1247    0.5075   -1.3176 N   0  0  0  0  0  0  0  0  0  0  0  0
    1.7290    0.3392   -1.7782 C   0  0  0  0  0  0  0  0  0  0  0  0
    4.2501    1.9153   -3.0820 C   0  0  0  0  0  0  0  0  0  0  0  0
    4.9708    2.1174   -0.7539 C   0  0  0  0  0  0  0  0  0  0  0  0
    4.3483    0.7289   -3.5353 O   0  0  0  0  0  0  0  0  0  0  0  0
    4.4463    3.0386   -3.5916 O   0  0  0  0  0  0  0  0  0  0  0  0
    4.6883    1.9925    0.7291 C   0  0  0  0  0  0  0  0  0  0  0  0
    3.8489    2.9105    1.3768 C   0  0  0  0  0  0  0  0  0  0  0  0
    5.2442    0.9368    1.4678 C   0  0  0  0  0  0  0  0  0  0  0  0
    3.5544    2.7656    2.7348 C   0  0  0  0  0  0  0  0  0  0  0  0
    4.9437    0.7888    2.8219 C   0  0  0  0  0  0  0  0  0  0  0  0
    4.1023    1.7024    3.4446 C   0  0  0  0  0  0  0  0  0  0  0  0
    3.8382    1.5203    4.7696 O   0  0  0  0  0  0  0  0  0  0  0  0
    1.2589   -1.0554   -1.5704 C   0  0  0  0  0  0  0  0  0  0  0  0
    1.9443   -2.2276   -1.8320 C   0  0  0  0  0  0  0  0  0  0  0  0
    0.0044   -1.4915   -1.0588 C   0  0  0  0  0  0  0  0  0  0  0  0
    1.1408   -3.2764   -1.4400 N   0  0  0  0  0  0  0  0  0  0  0  0
   -0.0315   -2.8231   -0.9373 N   0  0  0  0  0  0  0  0  0  0  0  0
   -1.1435   -0.6835   -0.6568 C   0  0  0  0  0  0  0  0  0  0  0  0
    1.4309   -4.6685   -1.4849 C   0  0  0  0  0  0  0  0  0  0  0  0
   -1.7351   -0.8800    0.5972 C   0  0  0  0  0  0  0  0  0  0  0  0
   -1.6731    0.2867   -1.5143 C   0  0  0  0  0  0  0  0  0  0  0  0
    0.4936   -5.5834   -0.9810 C   0  0  0  0  0  0  0  0  0  0  0  0
    2.6384   -5.1447   -2.0161 C   0  0  0  0  0  0  0  0  0  0  0  0
   -2.8336   -0.1100    0.9977 C   0  0  0  0  0  0  0  0  0  0  0  0
   -2.7685    1.0549   -1.1099 C   0  0  0  0  0  0  0  0  0  0  0  0
    0.7652   -6.9532   -1.0015 C   0  0  0  0  0  0  0  0  0  0  0  0
    2.9022   -6.5179   -2.0334 C   0  0  0  0  0  0  0  0  0  0  0  0
   -3.3577    0.8574    0.1417 C   0  0  0  0  0  0  0  0  0  0  0  0
    1.9691   -7.4196   -1.5256 C   0  0  0  0  0  0  0  0  0  0  0  0
   -4.4239    1.6715    0.4030 O   0  0  0  0  0  0  0  0  0  0  0  0
   -5.2046    1.3672    1.5580 C   0  0  0  0  0  0  0  0  0  0  0  0
   -6.4405    2.2363    1.5486 C   0  0  0  0  0  0  0  0  0  0  0  0
   -7.3718    2.1278    0.5033 C   0  0  0  0  0  0  0  0  0  0  0  0
   -6.6884    3.1484    2.5839 C   0  0  0  0  0  0  0  0  0  0  0  0
   -8.5265    2.9133    0.4946 C   0  0  0  0  0  0  0  0  0  0  0  0
   -7.8447    3.9330    2.5735 C   0  0  0  0  0  0  0  0  0  0  0  0
   -8.7627    3.8148    1.5304 C   0  0  0  0  0  0  0  0  0  0  0  0
    2.9442    2.6339   -1.4403 H   0  0  0  0  0  0  0  0  0  0  0  0
    3.6997   -0.0826   -1.9559 H   0  0  0  0  0  0  0  0  0  0  0  0
    3.2648    0.2036   -0.3531 H   0  0  0  0  0  0  0  0  0  0  0  0
    1.1330    1.0543   -1.2029 H   0  0  0  0  0  0  0  0  0  0  0  0
    1.6795    0.6044   -2.8397 H   0  0  0  0  0  0  0  0  0  0  0  0
    5.7654    1.4099   -1.0373 H   0  0  0  0  0  0  0  0  0  0  0  0
    5.3842    3.1186   -0.9417 H   0  0  0  0  0  0  0  0  0  0  0  0
    3.4263    3.7539    0.8315 H   0  0  0  0  0  0  0  0  0  0  0  0
    5.9194    0.2226    0.9999 H   0  0  0  0  0  0  0  0  0  0  0  0
    2.9036    3.4882    3.2182 H   0  0  0  0  0  0  0  0  0  0  0  0
    5.3746   -0.0290    3.3946 H   0  0  0  0  0  0  0  0  0  0  0  0
    3.3229    2.2781    5.0932 H   0  0  0  0  0  0  0  0  0  0  0  0
    2.9256   -2.3911   -2.2550 H   0  0  0  0  0  0  0  0  0  0  0  0
   -1.3447   -1.6402    1.2712 H   0  0  0  0  0  0  0  0  0  0  0  0
   -1.2660    0.4399   -2.5108 H   0  0  0  0  0  0  0  0  0  0  0  0
   -0.4548   -5.2441   -0.5662 H   0  0  0  0  0  0  0  0  0  0  0  0
    3.3922   -4.4850   -2.4318 H   0  0  0  0  0  0  0  0  0  0  0  0
   -3.2497   -0.2947    1.9817 H   0  0  0  0  0  0  0  0  0  0  0  0
   -3.1816    1.8035   -1.7835 H   0  0  0  0  0  0  0  0  0  0  0  0
    0.0364   -7.6555   -0.6068 H   0  0  0  0  0  0  0  0  0  0  0  0
    3.8390   -6.8845   -2.4468 H   0  0  0  0  0  0  0  0  0  0  0  0
    2.1781   -8.4866   -1.5412 H   0  0  0  0  0  0  0  0  0  0  0  0
   -5.5251    0.3165    1.5512 H   0  0  0  0  0  0  0  0  0  0  0  0
   -4.6154    1.5614    2.4625 H   0  0  0  0  0  0  0  0  0  0  0  0
   -7.1935    1.4299   -0.3127 H   0  0  0  0  0  0  0  0  0  0  0  0
   -5.9832    3.2581    3.4053 H   0  0  0  0  0  0  0  0  0  0  0  0
   -9.2403    2.8227   -0.3210 H   0  0  0  0  0  0  0  0  0  0  0  0
   -8.0296    4.6396    3.3787 H   0  0  0  0  0  0  0  0  0  0  0  0
   -9.6598    4.4285    1.5234 H   0  0  0  0  0  0  0  0  0  0  0  0
  1  2  1  0
  2  3  1  0
  1  4  1  0
  5  1  1  0
  4  6  2  0
  4  7  1  0
  8  5  1  0
  9  8  2  0
  8 10  1  0
 11  9  1  0
 10 12  2  0
 13 11  2  0
 12 13  1  0
 14 13  1  0
  3 15  1  0
 15 16  2  0
 17 15  1  0
 16 18  1  0
 19 17  2  0
 17 20  1  0
 18 21  1  0
 18 19  1  0
 20 22  2  0
 23 20  1  0
 21 24  2  0
 25 21  1  0
 22 26  1  0
 27 23  2  0
 24 28  1  0
 29 25  2  0
 26 30  2  0
 30 27  1  0
 28 31  2  0
 31 29  1  0
 30 32  1  0
 32 33  1  0
 33 34  1  0
 34 35  2  0
 36 34  1  0
 35 37  1  0
 38 36  2  0
 37 39  2  0
 39 38  1  0
  1 40  1  6
  2 41  1  0
  2 42  1  0
  3 43  1  0
  3 44  1  0
  5 45  1  0
  5 46  1  0
  9 47  1  0
 10 48  1  0
 11 49  1  0
 12 50  1  0
 14 51  1  0
 16 52  1  0
 22 53  1  0
 23 54  1  0
 24 55  1  0
 25 56  1  0
 26 57  1  0
 27 58  1  0
 28 59  1  0
 29 60  1  0
 31 61  1  0
 33 62  1  0
 33 63  1  0
 35 64  1  0
 36 65  1  0
 37 66  1  0
 38 67  1  0
 39 68  1  0
M  CHG  2   2   1   7  -1
M  END
>  <SMILES_raw>  (4) 
OC1=CC=C(C=C1)C[C@@H](C(O)=O)NCC2=CN(C3=CC=CC=C3)N=C2C4=CC=C(OCC5=CC=CC=C5)C=C4

>  <Protonation_Method>  (4) 
MolScrub

>  <Target_pH>  (4) 
7.4

$$$$
N-((3-(4-(benzyloxy)phenyl)-1-phenyl-1H-pyrazol-4yl)methyl)-L-leucin
     RDKit          3D

 66 69  0  0  0  0  0  0  0  0999 V2000
   -3.3576   -1.4152    0.1671 C   0  0  2  0  0  0  0  0  0  0  0  0
   -1.9835   -1.3381   -0.5116 N   0  0  0  0  0  0  0  0  0  0  0  0
   -1.7572   -0.2431   -1.4666 C   0  0  0  0  0  0  0  0  0  0  0  0
   -3.1753   -1.2474    1.7051 C   0  0  0  0  0  0  0  0  0  0  0  0
   -4.0945   -2.6845   -0.2681 C   0  0  0  0  0  0  0  0  0  0  0  0
   -1.9318   -1.1438    1.9750 O   0  0  0  0  0  0  0  0  0  0  0  0
   -4.2083   -1.2174    2.4061 O   0  0  0  0  0  0  0  0  0  0  0  0
   -3.7480   -4.0040    0.4571 C   0  0  0  0  0  0  0  0  0  0  0  0
   -2.2995   -4.4520    0.2762 C   0  0  0  0  0  0  0  0  0  0  0  0
   -4.6861   -5.1132   -0.0353 C   0  0  0  0  0  0  0  0  0  0  0  0
   -1.5694    1.0932   -0.8530 C   0  0  0  0  0  0  0  0  0  0  0  0
   -2.5292    1.9616   -0.3694 C   0  0  0  0  0  0  0  0  0  0  0  0
   -0.3460    1.7909   -0.6579 C   0  0  0  0  0  0  0  0  0  0  0  0
   -1.8804    3.0965    0.0731 N   0  0  0  0  0  0  0  0  0  0  0  0
   -0.5524    3.0224   -0.1842 N   0  0  0  0  0  0  0  0  0  0  0  0
    1.0005    1.3207   -0.9450 C   0  0  0  0  0  0  0  0  0  0  0  0
   -2.4473    4.2515    0.6802 C   0  0  0  0  0  0  0  0  0  0  0  0
    1.5575    0.2798   -0.1927 C   0  0  0  0  0  0  0  0  0  0  0  0
    1.7458    1.9051   -1.9718 C   0  0  0  0  0  0  0  0  0  0  0  0
   -1.6242    5.3542    0.9623 C   0  0  0  0  0  0  0  0  0  0  0  0
   -3.8105    4.3111    1.0039 C   0  0  0  0  0  0  0  0  0  0  0  0
    2.8436   -0.1911   -0.4831 C   0  0  0  0  0  0  0  0  0  0  0  0
    3.0273    1.4297   -2.2586 C   0  0  0  0  0  0  0  0  0  0  0  0
   -2.1609    6.5013    1.5515 C   0  0  0  0  0  0  0  0  0  0  0  0
   -4.3390    5.4607    1.5996 C   0  0  0  0  0  0  0  0  0  0  0  0
    3.5779    0.3728   -1.5277 C   0  0  0  0  0  0  0  0  0  0  0  0
   -3.5172    6.5549    1.8690 C   0  0  0  0  0  0  0  0  0  0  0  0
    4.8418    0.0177   -1.9098 O   0  0  0  0  0  0  0  0  0  0  0  0
    5.3710   -1.2251   -1.4388 C   0  0  0  0  0  0  0  0  0  0  0  0
    6.0763   -1.1207   -0.1055 C   0  0  0  0  0  0  0  0  0  0  0  0
    6.1402   -2.2407    0.7381 C   0  0  0  0  0  0  0  0  0  0  0  0
    6.7274    0.0573    0.2874 C   0  0  0  0  0  0  0  0  0  0  0  0
    6.8179   -2.1755    1.9568 C   0  0  0  0  0  0  0  0  0  0  0  0
    7.4050    0.1206    1.5066 C   0  0  0  0  0  0  0  0  0  0  0  0
    7.4488   -0.9945    2.3413 C   0  0  0  0  0  0  0  0  0  0  0  0
   -3.9249   -0.5492   -0.1909 H   0  0  0  0  0  0  0  0  0  0  0  0
   -1.6749   -2.2468   -0.8530 H   0  0  0  0  0  0  0  0  0  0  0  0
   -1.3938   -1.1676    0.3457 H   0  0  0  0  0  0  0  0  0  0  0  0
   -0.8717   -0.5295   -2.0440 H   0  0  0  0  0  0  0  0  0  0  0  0
   -2.5997   -0.2422   -2.1673 H   0  0  0  0  0  0  0  0  0  0  0  0
   -5.1663   -2.4998   -0.1081 H   0  0  0  0  0  0  0  0  0  0  0  0
   -3.9771   -2.8194   -1.3522 H   0  0  0  0  0  0  0  0  0  0  0  0
   -3.9336   -3.8807    1.5308 H   0  0  0  0  0  0  0  0  0  0  0  0
   -1.6057   -3.7687    0.7737 H   0  0  0  0  0  0  0  0  0  0  0  0
   -2.0314   -4.5120   -0.7840 H   0  0  0  0  0  0  0  0  0  0  0  0
   -2.1411   -5.4436    0.7171 H   0  0  0  0  0  0  0  0  0  0  0  0
   -4.5058   -6.0462    0.5089 H   0  0  0  0  0  0  0  0  0  0  0  0
   -5.7338   -4.8368    0.1216 H   0  0  0  0  0  0  0  0  0  0  0  0
   -4.5439   -5.3086   -1.1035 H   0  0  0  0  0  0  0  0  0  0  0  0
   -3.6023    1.8663   -0.3029 H   0  0  0  0  0  0  0  0  0  0  0  0
    1.0147   -0.1445    0.6513 H   0  0  0  0  0  0  0  0  0  0  0  0
    1.3405    2.7385   -2.5417 H   0  0  0  0  0  0  0  0  0  0  0  0
   -0.5598    5.3325    0.7363 H   0  0  0  0  0  0  0  0  0  0  0  0
   -4.4868    3.4806    0.8283 H   0  0  0  0  0  0  0  0  0  0  0  0
    3.2548   -0.9711    0.1492 H   0  0  0  0  0  0  0  0  0  0  0  0
    3.6075    1.8951   -3.0531 H   0  0  0  0  0  0  0  0  0  0  0  0
   -1.5157    7.3479    1.7726 H   0  0  0  0  0  0  0  0  0  0  0  0
   -5.3945    5.5003    1.8597 H   0  0  0  0  0  0  0  0  0  0  0  0
   -3.9314    7.4446    2.3367 H   0  0  0  0  0  0  0  0  0  0  0  0
    6.1177   -1.5430   -2.1770 H   0  0  0  0  0  0  0  0  0  0  0  0
    4.5970   -2.0038   -1.4359 H   0  0  0  0  0  0  0  0  0  0  0  0
    5.6615   -3.1751    0.4524 H   0  0  0  0  0  0  0  0  0  0  0  0
    6.7068    0.9364   -0.3549 H   0  0  0  0  0  0  0  0  0  0  0  0
    6.8552   -3.0472    2.6057 H   0  0  0  0  0  0  0  0  0  0  0  0
    7.8995    1.0416    1.8043 H   0  0  0  0  0  0  0  0  0  0  0  0
    7.9764   -0.9437    3.2897 H   0  0  0  0  0  0  0  0  0  0  0  0
  1  2  1  0
  2  3  1  0
  1  4  1  0
  5  1  1  0
  4  6  2  0
  4  7  1  0
  8  5  1  0
  9  8  1  0
  8 10  1  0
  3 11  1  0
 11 12  2  0
 13 11  1  0
 12 14  1  0
 15 13  2  0
 13 16  1  0
 14 17  1  0
 14 15  1  0
 16 18  2  0
 19 16  1  0
 17 20  2  0
 21 17  1  0
 18 22  1  0
 23 19  2  0
 20 24  1  0
 25 21  2  0
 22 26  2  0
 26 23  1  0
 24 27  2  0
 27 25  1  0
 26 28  1  0
 28 29  1  0
 29 30  1  0
 30 31  2  0
 32 30  1  0
 31 33  1  0
 34 32  2  0
 33 35  2  0
 35 34  1  0
  1 36  1  6
  2 37  1  0
  2 38  1  0
  3 39  1  0
  3 40  1  0
  5 41  1  0
  5 42  1  0
  8 43  1  0
  9 44  1  0
  9 45  1  0
  9 46  1  0
 10 47  1  0
 10 48  1  0
 10 49  1  0
 12 50  1  0
 18 51  1  0
 19 52  1  0
 20 53  1  0
 21 54  1  0
 22 55  1  0
 23 56  1  0
 24 57  1  0
 25 58  1  0
 27 59  1  0
 29 60  1  0
 29 61  1  0
 31 62  1  0
 32 63  1  0
 33 64  1  0
 34 65  1  0
 35 66  1  0
M  CHG  2   2   1   7  -1
M  END
>  <SMILES_raw>  (5) 
CC(C)C[C@@H](C(O)=O)NCC1=CN(C2=CC=CC=C2)N=C1C3=CC=C(OCC4=CC=CC=C4)C=C3

>  <Protonation_Method>  (5) 
MolScrub

>  <Target_pH>  (5) 
7.4

$$$$
N-((3-(4(benzyloxy)phenyl)-1-phenyl-1H-pyrazol-4yl)methyl)-L-isoleucin
     RDKit          3D

 66 69  0  0  0  0  0  0  0  0999 V2000
   -3.9915   -1.4571   -0.0842 C   0  0  2  0  0  0  0  0  0  0  0  0
   -2.6823   -1.1230    0.6476 N   0  0  0  0  0  0  0  0  0  0  0  0
   -1.5739   -0.5478   -0.1342 C   0  0  0  0  0  0  0  0  0  0  0  0
   -5.1838   -0.7879    0.6788 C   0  0  0  0  0  0  0  0  0  0  0  0
   -4.1607   -2.9781   -0.2791 C   0  0  2  0  0  0  0  0  0  0  0  0
   -6.3484   -1.0768    0.3270 O   0  0  0  0  0  0  0  0  0  0  0  0
   -4.7228   -0.0165    1.5834 O   0  0  0  0  0  0  0  0  0  0  0  0
   -4.1552   -3.7635    1.0529 C   0  0  0  0  0  0  0  0  0  0  0  0
   -3.1143   -3.5258   -1.2560 C   0  0  0  0  0  0  0  0  0  0  0  0
   -4.7070   -5.1774    0.9163 C   0  0  0  0  0  0  0  0  0  0  0  0
   -1.5126    0.9344   -0.1156 C   0  0  0  0  0  0  0  0  0  0  0  0
   -2.5469    1.8449   -0.2132 C   0  0  0  0  0  0  0  0  0  0  0  0
   -0.3513    1.7485   -0.0135 C   0  0  0  0  0  0  0  0  0  0  0  0
   -2.0028    3.1112   -0.1598 N   0  0  0  0  0  0  0  0  0  0  0  0
   -0.6497    3.0502   -0.0703 N   0  0  0  0  0  0  0  0  0  0  0  0
    1.0266    1.3098    0.1393 C   0  0  0  0  0  0  0  0  0  0  0  0
   -2.6811    4.3601   -0.2159 C   0  0  0  0  0  0  0  0  0  0  0  0
    1.9080    1.3516   -0.9462 C   0  0  0  0  0  0  0  0  0  0  0  0
    1.4716    0.8255    1.3726 C   0  0  0  0  0  0  0  0  0  0  0  0
   -4.0810    4.4262   -0.2777 C   0  0  0  0  0  0  0  0  0  0  0  0
   -1.9352    5.5506   -0.2151 C   0  0  0  0  0  0  0  0  0  0  0  0
    3.2214    0.8829   -0.8098 C   0  0  0  0  0  0  0  0  0  0  0  0
    2.7817    0.3623    1.5047 C   0  0  0  0  0  0  0  0  0  0  0  0
   -4.7183    5.6677   -0.3489 C   0  0  0  0  0  0  0  0  0  0  0  0
   -2.5799    6.7873   -0.2894 C   0  0  0  0  0  0  0  0  0  0  0  0
    3.6569    0.3726    0.4137 C   0  0  0  0  0  0  0  0  0  0  0  0
   -3.9701    6.8448   -0.3570 C   0  0  0  0  0  0  0  0  0  0  0  0
    4.8979   -0.1278    0.6851 O   0  0  0  0  0  0  0  0  0  0  0  0
    5.7931   -0.3025   -0.4126 C   0  0  0  0  0  0  0  0  0  0  0  0
    7.0019   -1.0627    0.0787 C   0  0  0  0  0  0  0  0  0  0  0  0
    6.8511   -2.3414    0.6364 C   0  0  0  0  0  0  0  0  0  0  0  0
    8.2889   -0.5171   -0.0235 C   0  0  0  0  0  0  0  0  0  0  0  0
    7.9632   -3.0540    1.0876 C   0  0  0  0  0  0  0  0  0  0  0  0
    9.4010   -1.2318    0.4278 C   0  0  0  0  0  0  0  0  0  0  0  0
    9.2367   -2.4996    0.9837 C   0  0  0  0  0  0  0  0  0  0  0  0
   -3.9421   -0.9523   -1.0583 H   0  0  0  0  0  0  0  0  0  0  0  0
   -2.3993   -1.8711    1.2819 H   0  0  0  0  0  0  0  0  0  0  0  0
   -3.0532   -0.3913    1.3106 H   0  0  0  0  0  0  0  0  0  0  0  0
   -0.6611   -0.9808    0.2913 H   0  0  0  0  0  0  0  0  0  0  0  0
   -1.6457   -0.9173   -1.1626 H   0  0  0  0  0  0  0  0  0  0  0  0
   -5.1425   -3.1350   -0.7500 H   0  0  0  0  0  0  0  0  0  0  0  0
   -4.7643   -3.2398    1.7983 H   0  0  0  0  0  0  0  0  0  0  0  0
   -3.1376   -3.8272    1.4596 H   0  0  0  0  0  0  0  0  0  0  0  0
   -3.1252   -2.9596   -2.1937 H   0  0  0  0  0  0  0  0  0  0  0  0
   -2.0993   -3.4772   -0.8425 H   0  0  0  0  0  0  0  0  0  0  0  0
   -3.3231   -4.5674   -1.5164 H   0  0  0  0  0  0  0  0  0  0  0  0
   -4.1053   -5.7841    0.2335 H   0  0  0  0  0  0  0  0  0  0  0  0
   -5.7410   -5.1636    0.5526 H   0  0  0  0  0  0  0  0  0  0  0  0
   -4.7001   -5.6761    1.8925 H   0  0  0  0  0  0  0  0  0  0  0  0
   -3.6128    1.6960   -0.3011 H   0  0  0  0  0  0  0  0  0  0  0  0
    1.5805    1.7621   -1.8994 H   0  0  0  0  0  0  0  0  0  0  0  0
    0.8141    0.8217    2.2384 H   0  0  0  0  0  0  0  0  0  0  0  0
   -4.7089    3.5385   -0.2527 H   0  0  0  0  0  0  0  0  0  0  0  0
   -0.8476    5.5280   -0.1615 H   0  0  0  0  0  0  0  0  0  0  0  0
    3.8776    0.9492   -1.6704 H   0  0  0  0  0  0  0  0  0  0  0  0
    3.1316   -0.0033    2.4694 H   0  0  0  0  0  0  0  0  0  0  0  0
   -5.8048    5.7162   -0.3989 H   0  0  0  0  0  0  0  0  0  0  0  0
   -1.9971    7.7052   -0.2947 H   0  0  0  0  0  0  0  0  0  0  0  0
   -4.4713    7.8068   -0.4160 H   0  0  0  0  0  0  0  0  0  0  0  0
    5.3251   -0.8891   -1.2148 H   0  0  0  0  0  0  0  0  0  0  0  0
    6.0930    0.6783   -0.8049 H   0  0  0  0  0  0  0  0  0  0  0  0
    5.8608   -2.7814    0.7303 H   0  0  0  0  0  0  0  0  0  0  0  0
    8.4369    0.4716   -0.4511 H   0  0  0  0  0  0  0  0  0  0  0  0
    7.8361   -4.0408    1.5245 H   0  0  0  0  0  0  0  0  0  0  0  0
   10.3948   -0.7986    0.3474 H   0  0  0  0  0  0  0  0  0  0  0  0
   10.1008   -3.0575    1.3383 H   0  0  0  0  0  0  0  0  0  0  0  0
  1  2  1  0
  2  3  1  0
  1  4  1  0
  5  1  1  0
  4  6  2  0
  4  7  1  0
  8  5  1  0
  5  9  1  0
 10  8  1  0
  3 11  1  0
 11 12  2  0
 13 11  1  0
 12 14  1  0
 15 13  2  0
 13 16  1  0
 14 17  1  0
 14 15  1  0
 16 18  2  0
 19 16  1  0
 17 20  2  0
 21 17  1  0
 18 22  1  0
 23 19  2  0
 20 24  1  0
 25 21  2  0
 22 26  2  0
 26 23  1  0
 24 27  2  0
 27 25  1  0
 26 28  1  0
 28 29  1  0
 29 30  1  0
 30 31  2  0
 32 30  1  0
 31 33  1  0
 34 32  2  0
 33 35  2  0
 35 34  1  0
  1 36  1  6
  2 37  1  0
  2 38  1  0
  3 39  1  0
  3 40  1  0
  5 41  1  6
  8 42  1  0
  8 43  1  0
  9 44  1  0
  9 45  1  0
  9 46  1  0
 10 47  1  0
 10 48  1  0
 10 49  1  0
 12 50  1  0
 18 51  1  0
 19 52  1  0
 20 53  1  0
 21 54  1  0
 22 55  1  0
 23 56  1  0
 24 57  1  0
 25 58  1  0
 27 59  1  0
 29 60  1  0
 29 61  1  0
 31 62  1  0
 32 63  1  0
 33 64  1  0
 34 65  1  0
 35 66  1  0
M  CHG  2   2   1   7  -1
M  END
>  <SMILES_raw>  (6) 
CC[C@H](C)[C@@H](C(O)=O)NCC1=CN(C2=CC=CC=C2)N=C1C3=CC=C(OCC4=CC=CC=C4)C=C3

>  <Protonation_Method>  (6) 
MolScrub

>  <Target_pH>  (6) 
7.4

$$$$
N-((3-(4(benzyloxy)phenyl)-1-phenyl-1H-pyrazol-4yl)methyl)-L-alanin
     RDKit          3D

 57 60  0  0  0  0  0  0  0  0999 V2000
   -2.1306    3.5134    0.9806 C   0  0  2  0  0  0  0  0  0  0  0  0
   -2.0297    1.9909    0.8839 N   0  0  0  0  0  0  0  0  0  0  0  0
   -2.8763    1.4099   -0.1858 C   0  0  0  0  0  0  0  0  0  0  0  0
   -1.3572    4.2046   -0.1806 C   0  0  0  0  0  0  0  0  0  0  0  0
   -1.4780    3.9398    2.2854 C   0  0  0  0  0  0  0  0  0  0  0  0
   -1.6769    5.3839   -0.4448 O   0  0  0  0  0  0  0  0  0  0  0  0
   -0.5457    3.3943   -0.7299 O   0  0  0  0  0  0  0  0  0  0  0  0
   -2.9092   -0.0765   -0.1487 C   0  0  0  0  0  0  0  0  0  0  0  0
   -4.0371   -0.8706   -0.0491 C   0  0  0  0  0  0  0  0  0  0  0  0
   -1.8298   -1.0078   -0.1934 C   0  0  0  0  0  0  0  0  0  0  0  0
   -3.6245   -2.1842   -0.0316 N   0  0  0  0  0  0  0  0  0  0  0  0
   -2.2766   -2.2634   -0.0736 N   0  0  0  0  0  0  0  0  0  0  0  0
   -0.3931   -0.7460   -0.2765 C   0  0  0  0  0  0  0  0  0  0  0  0
   -4.4254   -3.3580    0.0445 C   0  0  0  0  0  0  0  0  0  0  0  0
    0.4906   -1.4321    0.5663 C   0  0  0  0  0  0  0  0  0  0  0  0
    0.1263    0.1989   -1.1671 C   0  0  0  0  0  0  0  0  0  0  0  0
   -3.8016   -4.6158    0.0646 C   0  0  0  0  0  0  0  0  0  0  0  0
   -5.8245   -3.2851    0.0972 C   0  0  0  0  0  0  0  0  0  0  0  0
    1.8589   -1.1474    0.5407 C   0  0  0  0  0  0  0  0  0  0  0  0
    1.4960    0.4932   -1.1797 C   0  0  0  0  0  0  0  0  0  0  0  0
   -4.5669   -5.7813    0.1386 C   0  0  0  0  0  0  0  0  0  0  0  0
   -6.5838   -4.4571    0.1710 C   0  0  0  0  0  0  0  0  0  0  0  0
    2.3677   -0.1747   -0.3216 C   0  0  0  0  0  0  0  0  0  0  0  0
   -5.9564   -5.7014    0.1920 C   0  0  0  0  0  0  0  0  0  0  0  0
    3.7173    0.0202   -0.2318 O   0  0  0  0  0  0  0  0  0  0  0  0
    4.2735    1.0702   -1.0252 C   0  0  0  0  0  0  0  0  0  0  0  0
    5.7652    1.1203   -0.7911 C   0  0  0  0  0  0  0  0  0  0  0  0
    6.5562   -0.0182   -1.0082 C   0  0  0  0  0  0  0  0  0  0  0  0
    6.3875    2.3101   -0.3886 C   0  0  0  0  0  0  0  0  0  0  0  0
    7.9379    0.0307   -0.8201 C   0  0  0  0  0  0  0  0  0  0  0  0
    7.7700    2.3571   -0.2006 C   0  0  0  0  0  0  0  0  0  0  0  0
    8.5443    1.2184   -0.4168 C   0  0  0  0  0  0  0  0  0  0  0  0
   -3.1938    3.7740    0.9726 H   0  0  0  0  0  0  0  0  0  0  0  0
   -1.0515    1.8829    0.5464 H   0  0  0  0  0  0  0  0  0  0  0  0
   -2.1238    1.5154    1.7815 H   0  0  0  0  0  0  0  0  0  0  0  0
   -3.8880    1.8015   -0.0284 H   0  0  0  0  0  0  0  0  0  0  0  0
   -2.5218    1.7706   -1.1554 H   0  0  0  0  0  0  0  0  0  0  0  0
   -1.5408    5.0253    2.4168 H   0  0  0  0  0  0  0  0  0  0  0  0
   -1.9730    3.4709    3.1428 H   0  0  0  0  0  0  0  0  0  0  0  0
   -0.4174    3.6650    2.3148 H   0  0  0  0  0  0  0  0  0  0  0  0
   -5.0817   -0.6026    0.0044 H   0  0  0  0  0  0  0  0  0  0  0  0
    0.1203   -2.1923    1.2516 H   0  0  0  0  0  0  0  0  0  0  0  0
   -0.5121    0.7355   -1.8655 H   0  0  0  0  0  0  0  0  0  0  0  0
   -2.7173   -4.7056    0.0203 H   0  0  0  0  0  0  0  0  0  0  0  0
   -6.3591   -2.3414    0.0796 H   0  0  0  0  0  0  0  0  0  0  0  0
    2.5336   -1.6846    1.2033 H   0  0  0  0  0  0  0  0  0  0  0  0
    1.8370    1.2587   -1.8713 H   0  0  0  0  0  0  0  0  0  0  0  0
   -4.0759   -6.7512    0.1525 H   0  0  0  0  0  0  0  0  0  0  0  0
   -7.6692   -4.4003    0.2098 H   0  0  0  0  0  0  0  0  0  0  0  0
   -6.5505   -6.6101    0.2477 H   0  0  0  0  0  0  0  0  0  0  0  0
    3.8181    2.0272   -0.7423 H   0  0  0  0  0  0  0  0  0  0  0  0
    4.1035    0.8829   -2.0925 H   0  0  0  0  0  0  0  0  0  0  0  0
    6.0922   -0.9509   -1.3222 H   0  0  0  0  0  0  0  0  0  0  0  0
    5.7996    3.2098   -0.2180 H   0  0  0  0  0  0  0  0  0  0  0  0
    8.5400   -0.8582   -0.9889 H   0  0  0  0  0  0  0  0  0  0  0  0
    8.2432    3.2838    0.1123 H   0  0  0  0  0  0  0  0  0  0  0  0
    9.6202    1.2571   -0.2717 H   0  0  0  0  0  0  0  0  0  0  0  0
  1  2  1  0
  2  3  1  0
  1  4  1  0
  5  1  1  0
  4  6  2  0
  4  7  1  0
  3  8  1  0
  8  9  2  0
 10  8  1  0
  9 11  1  0
 12 10  2  0
 10 13  1  0
 11 14  1  0
 11 12  1  0
 13 15  2  0
 16 13  1  0
 14 17  2  0
 18 14  1  0
 15 19  1  0
 20 16  2  0
 17 21  1  0
 22 18  2  0
 19 23  2  0
 23 20  1  0
 21 24  2  0
 24 22  1  0
 23 25  1  0
 25 26  1  0
 26 27  1  0
 27 28  2  0
 29 27  1  0
 28 30  1  0
 31 29  2  0
 30 32  2  0
 32 31  1  0
  1 33  1  1
  2 34  1  0
  2 35  1  0
  3 36  1  0
  3 37  1  0
  5 38  1  0
  5 39  1  0
  5 40  1  0
  9 41  1  0
 15 42  1  0
 16 43  1  0
 17 44  1  0
 18 45  1  0
 19 46  1  0
 20 47  1  0
 21 48  1  0
 22 49  1  0
 24 50  1  0
 26 51  1  0
 26 52  1  0
 28 53  1  0
 29 54  1  0
 30 55  1  0
 31 56  1  0
 32 57  1  0
M  CHG  2   2   1   7  -1
M  END
>  <SMILES_raw>  (7) 
C[C@@H](C(O)=O)NCC1=CN(C2=CC=CC=C2)N=C1C3=CC=C(OCC4=CC=CC=C4)C=C3

>  <Protonation_Method>  (7) 
MolScrub

>  <Target_pH>  (7) 
7.4

$$$$
3-(((3-(4-(benzyloxy)phenyl)-1-phenyl-1H-pyrazol-4yl)methyl)amino)benzoic acid
     RDKit          3D

 60 64  0  0  0  0  0  0  0  0999 V2000
   -5.4889   -3.6227    0.8937 C   0  0  0  0  0  0  0  0  0  0  0  0
   -6.6694   -4.1864    0.1287 C   0  0  0  0  0  0  0  0  0  0  0  0
   -7.2138   -5.2372    0.5952 O   0  0  0  0  0  0  0  0  0  0  0  0
   -7.0311   -3.5669   -0.9219 O   0  0  0  0  0  0  0  0  0  0  0  0
   -5.0246   -4.2408    2.0615 C   0  0  0  0  0  0  0  0  0  0  0  0
   -4.8303   -2.4599    0.4506 C   0  0  0  0  0  0  0  0  0  0  0  0
   -3.9414   -3.7119    2.7597 C   0  0  0  0  0  0  0  0  0  0  0  0
   -3.7428   -1.9032    1.1406 C   0  0  0  0  0  0  0  0  0  0  0  0
   -3.3087   -2.5528    2.3004 C   0  0  0  0  0  0  0  0  0  0  0  0
   -3.1545   -0.7568    0.6405 N   0  0  0  0  0  0  0  0  0  0  0  0
   -2.0988   -0.0196    1.2970 C   0  0  0  0  0  0  0  0  0  0  0  0
   -1.6410    1.1923    0.5518 C   0  0  0  0  0  0  0  0  0  0  0  0
   -2.2774    2.4174    0.5083 C   0  0  0  0  0  0  0  0  0  0  0  0
   -0.4818    1.3649   -0.2572 C   0  0  0  0  0  0  0  0  0  0  0  0
   -1.5118    3.2527   -0.2661 N   0  0  0  0  0  0  0  0  0  0  0  0
   -0.3912    2.6285   -0.7006 N   0  0  0  0  0  0  0  0  0  0  0  0
    0.5508    0.3868   -0.6040 C   0  0  0  0  0  0  0  0  0  0  0  0
   -1.7681    4.6120   -0.6062 C   0  0  0  0  0  0  0  0  0  0  0  0
    1.9007    0.7639   -0.6068 C   0  0  0  0  0  0  0  0  0  0  0  0
    0.2211   -0.9289   -0.9463 C   0  0  0  0  0  0  0  0  0  0  0  0
   -2.9268    5.2670   -0.1658 C   0  0  0  0  0  0  0  0  0  0  0  0
   -0.8452    5.3098   -1.4016 C   0  0  0  0  0  0  0  0  0  0  0  0
    2.9045   -0.1576   -0.9297 C   0  0  0  0  0  0  0  0  0  0  0  0
    1.2256   -1.8486   -1.2653 C   0  0  0  0  0  0  0  0  0  0  0  0
   -3.1532    6.6015   -0.5168 C   0  0  0  0  0  0  0  0  0  0  0  0
   -1.0779    6.6427   -1.7476 C   0  0  0  0  0  0  0  0  0  0  0  0
    2.5691   -1.4676   -1.2673 C   0  0  0  0  0  0  0  0  0  0  0  0
   -2.2308    7.2876   -1.3052 C   0  0  0  0  0  0  0  0  0  0  0  0
    3.4474   -2.4654   -1.5875 O   0  0  0  0  0  0  0  0  0  0  0  0
    4.7783   -2.0965   -1.9578 C   0  0  0  0  0  0  0  0  0  0  0  0
    5.7273   -1.9967   -0.7833 C   0  0  0  0  0  0  0  0  0  0  0  0
    5.5481   -2.7740    0.3695 C   0  0  0  0  0  0  0  0  0  0  0  0
    6.8440   -1.1508   -0.8598 C   0  0  0  0  0  0  0  0  0  0  0  0
    6.4491   -2.6877    1.4321 C   0  0  0  0  0  0  0  0  0  0  0  0
    7.7449   -1.0659    0.2035 C   0  0  0  0  0  0  0  0  0  0  0  0
    7.5460   -1.8326    1.3497 C   0  0  0  0  0  0  0  0  0  0  0  0
   -5.5202   -5.1420    2.4185 H   0  0  0  0  0  0  0  0  0  0  0  0
   -5.1972   -1.9874   -0.4599 H   0  0  0  0  0  0  0  0  0  0  0  0
   -3.5922   -4.2048    3.6613 H   0  0  0  0  0  0  0  0  0  0  0  0
   -2.4686   -2.1739    2.8710 H   0  0  0  0  0  0  0  0  0  0  0  0
   -3.5640   -0.3576   -0.1960 H   0  0  0  0  0  0  0  0  0  0  0  0
   -2.4516    0.3083    2.2840 H   0  0  0  0  0  0  0  0  0  0  0  0
   -1.2407   -0.6758    1.4828 H   0  0  0  0  0  0  0  0  0  0  0  0
   -3.2016    2.7329    0.9675 H   0  0  0  0  0  0  0  0  0  0  0  0
    2.1784    1.7839   -0.3482 H   0  0  0  0  0  0  0  0  0  0  0  0
   -0.8160   -1.2575   -0.9808 H   0  0  0  0  0  0  0  0  0  0  0  0
   -3.6749    4.7704    0.4445 H   0  0  0  0  0  0  0  0  0  0  0  0
    0.0600    4.8242   -1.7619 H   0  0  0  0  0  0  0  0  0  0  0  0
    3.9340    0.1802   -0.8900 H   0  0  0  0  0  0  0  0  0  0  0  0
    0.9506   -2.8692   -1.5225 H   0  0  0  0  0  0  0  0  0  0  0  0
   -4.0550    7.1045   -0.1764 H   0  0  0  0  0  0  0  0  0  0  0  0
   -0.3587    7.1734   -2.3656 H   0  0  0  0  0  0  0  0  0  0  0  0
   -2.4126    8.3237   -1.5780 H   0  0  0  0  0  0  0  0  0  0  0  0
    5.1515   -2.8957   -2.6096 H   0  0  0  0  0  0  0  0  0  0  0  0
    4.7793   -1.1828   -2.5660 H   0  0  0  0  0  0  0  0  0  0  0  0
    4.6965   -3.4474    0.4490 H   0  0  0  0  0  0  0  0  0  0  0  0
    7.0168   -0.5483   -1.7489 H   0  0  0  0  0  0  0  0  0  0  0  0
    6.2914   -3.2885    2.3237 H   0  0  0  0  0  0  0  0  0  0  0  0
    8.6022   -0.4017    0.1369 H   0  0  0  0  0  0  0  0  0  0  0  0
    8.2453   -1.7657    2.1784 H   0  0  0  0  0  0  0  0  0  0  0  0
  1  2  1  0
  2  3  2  0
  2  4  1  0
  1  5  2  0
  6  1  1  0
  5  7  1  0
  8  6  2  0
  7  9  2  0
  9  8  1  0
  8 10  1  0
 10 11  1  0
 11 12  1  0
 12 13  2  0
 14 12  1  0
 13 15  1  0
 16 14  2  0
 14 17  1  0
 15 18  1  0
 15 16  1  0
 17 19  2  0
 20 17  1  0
 18 21  2  0
 22 18  1  0
 19 23  1  0
 24 20  2  0
 21 25  1  0
 26 22  2  0
 23 27  2  0
 27 24  1  0
 25 28  2  0
 28 26  1  0
 27 29  1  0
 29 30  1  0
 30 31  1  0
 31 32  2  0
 33 31  1  0
 32 34  1  0
 35 33  2  0
 34 36  2  0
 36 35  1  0
  5 37  1  0
  6 38  1  0
  7 39  1  0
  9 40  1  0
 10 41  1  0
 11 42  1  0
 11 43  1  0
 13 44  1  0
 19 45  1  0
 20 46  1  0
 21 47  1  0
 22 48  1  0
 23 49  1  0
 24 50  1  0
 25 51  1  0
 26 52  1  0
 28 53  1  0
 30 54  1  0
 30 55  1  0
 32 56  1  0
 33 57  1  0
 34 58  1  0
 35 59  1  0
 36 60  1  0
M  CHG  1   4  -1
M  END
>  <SMILES_raw>  (8) 
O=C(O)C1=CC=CC(NCC2=CN(C3=CC=CC=C3)N=C2C4=CC=C(OCC5=CC=CC=C5)C=C4)=C1

>  <Protonation_Method>  (8) 
MolScrub

>  <Target_pH>  (8) 
7.4

$$$$
N-((3-(4-(benzyloxy)phenyl)-1-(3-nitrophenyl)-1H-pyrazol-4-yl)methyl)-L-methionin
     RDKit          3D

 66 69  0  0  0  0  0  0  0  0999 V2000
   -2.7486    2.4968    1.2296 C   0  0  2  0  0  0  0  0  0  0  0  0
   -2.5634    1.1321    0.5415 N   0  0  0  0  0  0  0  0  0  0  0  0
   -1.7828    0.1563    1.3300 C   0  0  0  0  0  0  0  0  0  0  0  0
   -4.0422    2.4259    2.1030 C   0  0  0  0  0  0  0  0  0  0  0  0
   -2.9276    3.5446    0.1283 C   0  0  0  0  0  0  0  0  0  0  0  0
   -4.7109    1.3856    1.7889 O   0  0  0  0  0  0  0  0  0  0  0  0
   -4.2093    3.3157    2.9621 O   0  0  0  0  0  0  0  0  0  0  0  0
   -2.8857    4.9927    0.6223 C   0  0  0  0  0  0  0  0  0  0  0  0
   -1.2237    5.4298    1.2367 S   0  0  0  0  0  0  0  0  0  0  0  0
   -1.7163    6.3057    2.7451 C   0  0  0  0  0  0  0  0  0  0  0  0
   -1.7713   -1.1643    0.6546 C   0  0  0  0  0  0  0  0  0  0  0  0
   -2.8209   -2.0568    0.5433 C   0  0  0  0  0  0  0  0  0  0  0  0
   -0.6886   -1.8111    0.0007 C   0  0  0  0  0  0  0  0  0  0  0  0
   -2.3529   -3.1644   -0.1269 N   0  0  0  0  0  0  0  0  0  0  0  0
   -1.0508   -3.0111   -0.4639 N   0  0  0  0  0  0  0  0  0  0  0  0
    0.6736   -1.3236   -0.1777 C   0  0  0  0  0  0  0  0  0  0  0  0
   -3.0590   -4.3533   -0.4695 C   0  0  0  0  0  0  0  0  0  0  0  0
    1.7492   -2.0516    0.3387 C   0  0  0  0  0  0  0  0  0  0  0  0
    0.9219   -0.1204   -0.8497 C   0  0  0  0  0  0  0  0  0  0  0  0
   -2.3920   -5.3690   -1.1767 C   0  0  0  0  0  0  0  0  0  0  0  0
   -4.4027   -4.5324   -0.1120 C   0  0  0  0  0  0  0  0  0  0  0  0
    3.0518   -1.5627    0.2101 C   0  0  0  0  0  0  0  0  0  0  0  0
    2.2295    0.3650   -0.9781 C   0  0  0  0  0  0  0  0  0  0  0  0
   -3.0549   -6.5478   -1.5306 C   0  0  0  0  0  0  0  0  0  0  0  0
   -5.0579   -5.7233   -0.4711 C   0  0  0  0  0  0  0  0  0  0  0  0
    3.2992   -0.3508   -0.4399 C   0  0  0  0  0  0  0  0  0  0  0  0
   -4.3911   -6.7308   -1.1786 C   0  0  0  0  0  0  0  0  0  0  0  0
   -6.4630   -5.9167   -0.0938 N   0  0  0  0  0  0  0  0  0  0  0  0
    4.6153    0.0138   -0.4824 O   0  0  0  0  0  0  0  0  0  0  0  0
   -6.9407   -5.1393    0.7445 O   0  0  0  0  0  0  0  0  0  0  0  0
   -7.0828   -6.8442   -0.6326 O   0  0  0  0  0  0  0  0  0  0  0  0
    4.9313    1.2523   -1.1132 C   0  0  0  0  0  0  0  0  0  0  0  0
    6.4188    1.4748   -1.0013 C   0  0  0  0  0  0  0  0  0  0  0  0
    7.2952    0.9001   -1.9329 C   0  0  0  0  0  0  0  0  0  0  0  0
    6.9491    2.2319    0.0532 C   0  0  0  0  0  0  0  0  0  0  0  0
    8.6722    1.0995   -1.8247 C   0  0  0  0  0  0  0  0  0  0  0  0
    8.3264    2.4296    0.1596 C   0  0  0  0  0  0  0  0  0  0  0  0
    9.1866    1.8662   -0.7807 C   0  0  0  0  0  0  0  0  0  0  0  0
   -1.8583    2.6641    1.8411 H   0  0  0  0  0  0  0  0  0  0  0  0
   -2.3017    1.1876   -0.4414 H   0  0  0  0  0  0  0  0  0  0  0  0
   -3.5538    0.7871    0.5906 H   0  0  0  0  0  0  0  0  0  0  0  0
   -2.2420    0.0775    2.3217 H   0  0  0  0  0  0  0  0  0  0  0  0
   -0.7757    0.5668    1.4477 H   0  0  0  0  0  0  0  0  0  0  0  0
   -2.1625    3.4104   -0.6478 H   0  0  0  0  0  0  0  0  0  0  0  0
   -3.8937    3.3871   -0.3691 H   0  0  0  0  0  0  0  0  0  0  0  0
   -3.1050    5.6626   -0.2167 H   0  0  0  0  0  0  0  0  0  0  0  0
   -3.6479    5.1777    1.3828 H   0  0  0  0  0  0  0  0  0  0  0  0
   -2.1927    5.6135    3.4444 H   0  0  0  0  0  0  0  0  0  0  0  0
   -0.8275    6.7267    3.2231 H   0  0  0  0  0  0  0  0  0  0  0  0
   -2.4025    7.1228    2.5064 H   0  0  0  0  0  0  0  0  0  0  0  0
   -3.8379   -1.9866    0.9049 H   0  0  0  0  0  0  0  0  0  0  0  0
    1.5814   -2.9999    0.8458 H   0  0  0  0  0  0  0  0  0  0  0  0
    0.1098    0.4434   -1.2988 H   0  0  0  0  0  0  0  0  0  0  0  0
   -1.3473   -5.2550   -1.4674 H   0  0  0  0  0  0  0  0  0  0  0  0
   -4.9513   -3.7715    0.4358 H   0  0  0  0  0  0  0  0  0  0  0  0
    3.8824   -2.1327    0.6209 H   0  0  0  0  0  0  0  0  0  0  0  0
    2.3765    1.3001   -1.5095 H   0  0  0  0  0  0  0  0  0  0  0  0
   -2.5229   -7.3240   -2.0765 H   0  0  0  0  0  0  0  0  0  0  0  0
   -4.8932   -7.6554   -1.4571 H   0  0  0  0  0  0  0  0  0  0  0  0
    4.6487    1.2273   -2.1729 H   0  0  0  0  0  0  0  0  0  0  0  0
    4.4023    2.0813   -0.6259 H   0  0  0  0  0  0  0  0  0  0  0  0
    6.9083    0.2893   -2.7457 H   0  0  0  0  0  0  0  0  0  0  0  0
    6.2922    2.6681    0.8022 H   0  0  0  0  0  0  0  0  0  0  0  0
    9.3446    0.6514   -2.5516 H   0  0  0  0  0  0  0  0  0  0  0  0
    8.7295    3.0174    0.9800 H   0  0  0  0  0  0  0  0  0  0  0  0
   10.2590    2.0181   -0.6939 H   0  0  0  0  0  0  0  0  0  0  0  0
  1  2  1  0
  2  3  1  0
  1  4  1  0
  5  1  1  0
  4  6  2  0
  4  7  1  0
  8  5  1  0
  9  8  1  0
 10  9  1  0
  3 11  1  0
 11 12  2  0
 13 11  1  0
 12 14  1  0
 15 13  2  0
 13 16  1  0
 14 17  1  0
 14 15  1  0
 16 18  2  0
 19 16  1  0
 17 20  2  0
 21 17  1  0
 18 22  1  0
 23 19  2  0
 20 24  1  0
 25 21  2  0
 22 26  2  0
 26 23  1  0
 24 27  2  0
 27 25  1  0
 25 28  1  0
 26 29  1  0
 28 30  1  0
 28 31  2  0
 29 32  1  0
 32 33  1  0
 33 34  2  0
 35 33  1  0
 34 36  1  0
 37 35  2  0
 36 38  2  0
 38 37  1  0
  1 39  1  1
  2 40  1  0
  2 41  1  0
  3 42  1  0
  3 43  1  0
  5 44  1  0
  5 45  1  0
  8 46  1  0
  8 47  1  0
 10 48  1  0
 10 49  1  0
 10 50  1  0
 12 51  1  0
 18 52  1  0
 19 53  1  0
 20 54  1  0
 21 55  1  0
 22 56  1  0
 23 57  1  0
 24 58  1  0
 27 59  1  0
 32 60  1  0
 32 61  1  0
 34 62  1  0
 35 63  1  0
 36 64  1  0
 37 65  1  0
 38 66  1  0
M  CHG  4   2   1   7  -1  28   1  30  -1
M  END
>  <SMILES_raw>  (9) 
CSCC[C@@H](C(O)=O)NCC1=CN(C2=CC=CC([N+]([O-])=O)=C2)N=C1C3=CC=C(OCC4=CC=CC=C4)C=C3

>  <Protonation_Method>  (9) 
MolScrub

>  <Target_pH>  (9) 
7.4

$$$$
N-((3-(4-(benzyloxy)phenyl)-1-(3-nitrophenyl)-1H-pyrazol-4-yl)methyl)-L-phenylalanin
     RDKit          3D

 69 73  0  0  0  0  0  0  0  0999 V2000
   -3.9659   -1.6097   -1.5138 C   0  0  2  0  0  0  0  0  0  0  0  0
   -2.8739   -0.5444   -1.3378 N   0  0  0  0  0  0  0  0  0  0  0  0
   -2.4953   -0.1824    0.0508 C   0  0  0  0  0  0  0  0  0  0  0  0
   -5.3524   -1.0331   -1.0935 C   0  0  0  0  0  0  0  0  0  0  0  0
   -3.5503   -3.0180   -1.0711 C   0  0  0  0  0  0  0  0  0  0  0  0
   -5.3127    0.2427   -1.1113 O   0  0  0  0  0  0  0  0  0  0  0  0
   -6.2554   -1.8422   -0.7990 O   0  0  0  0  0  0  0  0  0  0  0  0
   -3.0989   -3.2092    0.3569 C   0  0  0  0  0  0  0  0  0  0  0  0
   -3.9888   -3.0242    1.4235 C   0  0  0  0  0  0  0  0  0  0  0  0
   -1.7775   -3.5955    0.6385 C   0  0  0  0  0  0  0  0  0  0  0  0
   -3.5553   -3.1738    2.7413 C   0  0  0  0  0  0  0  0  0  0  0  0
   -1.3467   -3.7448    1.9578 C   0  0  0  0  0  0  0  0  0  0  0  0
   -2.2342   -3.5271    3.0092 C   0  0  0  0  0  0  0  0  0  0  0  0
   -1.9384    1.1939    0.1040 C   0  0  0  0  0  0  0  0  0  0  0  0
   -2.6573    2.3710    0.1808 C   0  0  0  0  0  0  0  0  0  0  0  0
   -0.5815    1.6113    0.0545 C   0  0  0  0  0  0  0  0  0  0  0  0
   -1.7547    3.4060    0.2045 N   0  0  0  0  0  0  0  0  0  0  0  0
   -0.4879    2.9459    0.0708 N   0  0  0  0  0  0  0  0  0  0  0  0
    0.6131    0.7819   -0.0605 C   0  0  0  0  0  0  0  0  0  0  0  0
   -2.0143    4.7984    0.3459 C   0  0  0  0  0  0  0  0  0  0  0  0
    1.5172    1.0001   -1.1071 C   0  0  0  0  0  0  0  0  0  0  0  0
    0.8670   -0.2430    0.8563 C   0  0  0  0  0  0  0  0  0  0  0  0
   -3.3242    5.2819    0.4789 C   0  0  0  0  0  0  0  0  0  0  0  0
   -0.9373    5.7013    0.3579 C   0  0  0  0  0  0  0  0  0  0  0  0
    2.6471    0.1861   -1.2546 C   0  0  0  0  0  0  0  0  0  0  0  0
    1.9931   -1.0559    0.7036 C   0  0  0  0  0  0  0  0  0  0  0  0
   -3.5575    6.6514    0.6412 C   0  0  0  0  0  0  0  0  0  0  0  0
   -1.1848    7.0716    0.5171 C   0  0  0  0  0  0  0  0  0  0  0  0
    2.8855   -0.8496   -0.3512 C   0  0  0  0  0  0  0  0  0  0  0  0
   -2.4918    7.5509    0.6616 C   0  0  0  0  0  0  0  0  0  0  0  0
   -0.0633    8.0178    0.5288 N   0  0  0  0  0  0  0  0  0  0  0  0
    3.9363   -1.7222   -0.3812 O   0  0  0  0  0  0  0  0  0  0  0  0
   -0.2934    9.1769    0.9031 O   0  0  0  0  0  0  0  0  0  0  0  0
    1.0450    7.6034    0.1604 O   0  0  0  0  0  0  0  0  0  0  0  0
    4.9332   -1.5115   -1.3798 C   0  0  0  0  0  0  0  0  0  0  0  0
    6.0251   -2.5338   -1.1799 C   0  0  0  0  0  0  0  0  0  0  0  0
    6.1230   -3.6551   -2.0161 C   0  0  0  0  0  0  0  0  0  0  0  0
    6.9496   -2.3826   -0.1356 C   0  0  0  0  0  0  0  0  0  0  0  0
    7.1356   -4.5968   -1.8210 C   0  0  0  0  0  0  0  0  0  0  0  0
    7.9602   -3.3259    0.0584 C   0  0  0  0  0  0  0  0  0  0  0  0
    8.0542   -4.4309   -0.7856 C   0  0  0  0  0  0  0  0  0  0  0  0
   -4.0628   -1.6670   -2.6087 H   0  0  0  0  0  0  0  0  0  0  0  0
   -2.0817   -0.6459   -1.9702 H   0  0  0  0  0  0  0  0  0  0  0  0
   -3.4303    0.2838   -1.6364 H   0  0  0  0  0  0  0  0  0  0  0  0
   -1.7568   -0.9091    0.3815 H   0  0  0  0  0  0  0  0  0  0  0  0
   -3.3810   -0.2501    0.6900 H   0  0  0  0  0  0  0  0  0  0  0  0
   -4.3827   -3.7130   -1.2483 H   0  0  0  0  0  0  0  0  0  0  0  0
   -2.7473   -3.3597   -1.7407 H   0  0  0  0  0  0  0  0  0  0  0  0
   -5.0345   -2.7734    1.2425 H   0  0  0  0  0  0  0  0  0  0  0  0
   -1.0693   -3.7840   -0.1661 H   0  0  0  0  0  0  0  0  0  0  0  0
   -4.2584   -3.0318    3.5596 H   0  0  0  0  0  0  0  0  0  0  0  0
   -0.3229   -4.0483    2.1666 H   0  0  0  0  0  0  0  0  0  0  0  0
   -1.9058   -3.6570    4.0381 H   0  0  0  0  0  0  0  0  0  0  0  0
   -3.7268    2.5286    0.2302 H   0  0  0  0  0  0  0  0  0  0  0  0
    1.3487    1.8119   -1.8133 H   0  0  0  0  0  0  0  0  0  0  0  0
    0.2106   -0.4123    1.7066 H   0  0  0  0  0  0  0  0  0  0  0  0
   -4.1893    4.6249    0.4622 H   0  0  0  0  0  0  0  0  0  0  0  0
    0.0849    5.3399    0.2424 H   0  0  0  0  0  0  0  0  0  0  0  0
    3.3182    0.3930   -2.0820 H   0  0  0  0  0  0  0  0  0  0  0  0
    2.1864   -1.8500    1.4219 H   0  0  0  0  0  0  0  0  0  0  0  0
   -4.5765    7.0180    0.7579 H   0  0  0  0  0  0  0  0  0  0  0  0
   -2.6949    8.6126    0.7876 H   0  0  0  0  0  0  0  0  0  0  0  0
    5.3686   -0.5074   -1.2931 H   0  0  0  0  0  0  0  0  0  0  0  0
    4.4987   -1.6248   -2.3812 H   0  0  0  0  0  0  0  0  0  0  0  0
    5.4106   -3.8049   -2.8246 H   0  0  0  0  0  0  0  0  0  0  0  0
    6.8817   -1.5285    0.5348 H   0  0  0  0  0  0  0  0  0  0  0  0
    7.2075   -5.4618   -2.4757 H   0  0  0  0  0  0  0  0  0  0  0  0
    8.6720   -3.1996    0.8702 H   0  0  0  0  0  0  0  0  0  0  0  0
    8.8416   -5.1649   -0.6338 H   0  0  0  0  0  0  0  0  0  0  0  0
  1  2  1  0
  2  3  1  0
  1  4  1  0
  1  5  1  0
  4  6  2  0
  4  7  1  0
  5  8  1  0
  8  9  2  0
 10  8  1  0
  9 11  1  0
 12 10  2  0
 11 13  2  0
 13 12  1  0
  3 14  1  0
 14 15  2  0
 16 14  1  0
 15 17  1  0
 18 16  2  0
 16 19  1  0
 17 20  1  0
 17 18  1  0
 19 21  2  0
 22 19  1  0
 20 23  2  0
 24 20  1  0
 21 25  1  0
 26 22  2  0
 23 27  1  0
 28 24  2  0
 25 29  2  0
 29 26  1  0
 27 30  2  0
 30 28  1  0
 28 31  1  0
 29 32  1  0
 31 33  1  0
 31 34  2  0
 32 35  1  0
 35 36  1  0
 36 37  2  0
 38 36  1  0
 37 39  1  0
 40 38  2  0
 39 41  2  0
 41 40  1  0
  1 42  1  6
  2 43  1  0
  2 44  1  0
  3 45  1  0
  3 46  1  0
  5 47  1  0
  5 48  1  0
  9 49  1  0
 10 50  1  0
 11 51  1  0
 12 52  1  0
 13 53  1  0
 15 54  1  0
 21 55  1  0
 22 56  1  0
 23 57  1  0
 24 58  1  0
 25 59  1  0
 26 60  1  0
 27 61  1  0
 30 62  1  0
 35 63  1  0
 35 64  1  0
 37 65  1  0
 38 66  1  0
 39 67  1  0
 40 68  1  0
 41 69  1  0
M  CHG  4   2   1   7  -1  31   1  33  -1
M  END
>  <SMILES_raw>  (10) 
O=C(O)[C@H](CC1=CC=CC=C1)NCC2=CN(C3=CC=CC([N+]([O-])=O)=C3)N=C2C4=CC=C(OCC5=CC=CC=C5)C=C4

>  <Protonation_Method>  (10) 
MolScrub

>  <Target_pH>  (10) 
7.4

$$$$
((3-(4-(benzyloxy)phenyl)-1-(3-nitrophenyl)-1H-pyrazol-4-yl)methyl)-L-tryptophan
     RDKit          3D

 73 78  0  0  0  0  0  0  0  0999 V2000
   -3.1315   -1.4423   -0.3834 C   0  0  2  0  0  0  0  0  0  0  0  0
   -1.8756   -1.1982   -1.2613 N   0  0  0  0  0  0  0  0  0  0  0  0
   -0.6300   -0.9560   -0.4930 C   0  0  0  0  0  0  0  0  0  0  0  0
   -3.0734   -2.9223    0.0917 C   0  0  0  0  0  0  0  0  0  0  0  0
   -4.3618   -1.2622   -1.2764 C   0  0  0  0  0  0  0  0  0  0  0  0
   -2.4454   -3.6214   -0.7748 O   0  0  0  0  0  0  0  0  0  0  0  0
   -3.4685   -3.1809    1.2478 O   0  0  0  0  0  0  0  0  0  0  0  0
   -5.6207   -0.9496   -0.5266 C   0  0  0  0  0  0  0  0  0  0  0  0
   -6.0744    0.3036   -0.1576 C   0  0  0  0  0  0  0  0  0  0  0  0
   -6.6081   -1.8927   -0.0904 C   0  0  0  0  0  0  0  0  0  0  0  0
   -7.2794    0.1521    0.4794 N   0  0  0  0  0  0  0  0  0  0  0  0
   -7.6363   -1.1739    0.5192 C   0  0  0  0  0  0  0  0  0  0  0  0
   -6.7269   -3.2958   -0.1655 C   0  0  0  0  0  0  0  0  0  0  0  0
   -8.7789   -1.7856    1.0509 C   0  0  0  0  0  0  0  0  0  0  0  0
   -7.8598   -3.9237    0.3658 C   0  0  0  0  0  0  0  0  0  0  0  0
   -8.8716   -3.1770    0.9625 C   0  0  0  0  0  0  0  0  0  0  0  0
   -0.3713    0.4864   -0.2308 C   0  0  0  0  0  0  0  0  0  0  0  0
   -1.2762    1.5299   -0.1510 C   0  0  0  0  0  0  0  0  0  0  0  0
    0.8955    1.1078   -0.0203 C   0  0  0  0  0  0  0  0  0  0  0  0
   -0.5607    2.6844    0.0767 N   0  0  0  0  0  0  0  0  0  0  0  0
    0.7637    2.4337    0.1072 N   0  0  0  0  0  0  0  0  0  0  0  0
    2.2204    0.4882    0.0229 C   0  0  0  0  0  0  0  0  0  0  0  0
   -1.0534    4.0104    0.2411 C   0  0  0  0  0  0  0  0  0  0  0  0
    2.4548   -0.6673    0.7755 C   0  0  0  0  0  0  0  0  0  0  0  0
    3.2830    1.0557   -0.6930 C   0  0  0  0  0  0  0  0  0  0  0  0
   -2.4307    4.2840    0.2144 C   0  0  0  0  0  0  0  0  0  0  0  0
   -0.1396    5.0628    0.4313 C   0  0  0  0  0  0  0  0  0  0  0  0
    3.7235   -1.2558    0.7824 C   0  0  0  0  0  0  0  0  0  0  0  0
    4.5527    0.4667   -0.6813 C   0  0  0  0  0  0  0  0  0  0  0  0
   -2.8929    5.5936    0.3814 C   0  0  0  0  0  0  0  0  0  0  0  0
   -0.6149    6.3705    0.5995 C   0  0  0  0  0  0  0  0  0  0  0  0
    4.7753   -0.6980    0.0521 C   0  0  0  0  0  0  0  0  0  0  0  0
   -1.9904    6.6392    0.5771 C   0  0  0  0  0  0  0  0  0  0  0  0
    0.3354    7.4718    0.8042 N   0  0  0  0  0  0  0  0  0  0  0  0
    5.9572   -1.3751    0.1522 O   0  0  0  0  0  0  0  0  0  0  0  0
   -0.1286    8.5855    1.0866 O   0  0  0  0  0  0  0  0  0  0  0  0
    1.5425    7.2225    0.6841 O   0  0  0  0  0  0  0  0  0  0  0  0
    7.0492   -0.9016   -0.6372 C   0  0  0  0  0  0  0  0  0  0  0  0
    8.2066   -1.8543   -0.4601 C   0  0  0  0  0  0  0  0  0  0  0  0
    8.3820   -2.9343   -1.3369 C   0  0  0  0  0  0  0  0  0  0  0  0
    9.1019   -1.6957    0.6074 C   0  0  0  0  0  0  0  0  0  0  0  0
    9.4439   -3.8236   -1.1622 C   0  0  0  0  0  0  0  0  0  0  0  0
   10.1632   -2.5871    0.7811 C   0  0  0  0  0  0  0  0  0  0  0  0
   10.3350   -3.6487   -0.1054 C   0  0  0  0  0  0  0  0  0  0  0  0
   -3.0967   -0.7295    0.4465 H   0  0  0  0  0  0  0  0  0  0  0  0
   -1.7736   -2.1683   -1.6484 H   0  0  0  0  0  0  0  0  0  0  0  0
   -2.0098   -0.5551   -2.0427 H   0  0  0  0  0  0  0  0  0  0  0  0
   -0.6749   -1.5318    0.4384 H   0  0  0  0  0  0  0  0  0  0  0  0
    0.1740   -1.3722   -1.1107 H   0  0  0  0  0  0  0  0  0  0  0  0
   -4.1918   -0.4288   -1.9722 H   0  0  0  0  0  0  0  0  0  0  0  0
   -4.5203   -2.1450   -1.9101 H   0  0  0  0  0  0  0  0  0  0  0  0
   -5.6537    1.2902   -0.2975 H   0  0  0  0  0  0  0  0  0  0  0  0
   -7.8417    0.8998    0.8603 H   0  0  0  0  0  0  0  0  0  0  0  0
   -5.9366   -3.8990   -0.6053 H   0  0  0  0  0  0  0  0  0  0  0  0
   -9.5639   -1.2106    1.5285 H   0  0  0  0  0  0  0  0  0  0  0  0
   -7.9380   -5.0070    0.3205 H   0  0  0  0  0  0  0  0  0  0  0  0
   -9.7384   -3.6869    1.3781 H   0  0  0  0  0  0  0  0  0  0  0  0
   -2.3520    1.5401   -0.2320 H   0  0  0  0  0  0  0  0  0  0  0  0
    1.6749   -1.1132    1.3887 H   0  0  0  0  0  0  0  0  0  0  0  0
    3.1308    1.9698   -1.2643 H   0  0  0  0  0  0  0  0  0  0  0  0
   -3.1756    3.5035    0.0761 H   0  0  0  0  0  0  0  0  0  0  0  0
    0.9312    4.8630    0.4618 H   0  0  0  0  0  0  0  0  0  0  0  0
    3.8981   -2.1534    1.3731 H   0  0  0  0  0  0  0  0  0  0  0  0
    5.3404    0.9515   -1.2473 H   0  0  0  0  0  0  0  0  0  0  0  0
   -3.9618    5.7992    0.3565 H   0  0  0  0  0  0  0  0  0  0  0  0
   -2.3713    7.6510    0.7096 H   0  0  0  0  0  0  0  0  0  0  0  0
    6.7742   -0.8605   -1.7013 H   0  0  0  0  0  0  0  0  0  0  0  0
    7.3556    0.1027   -0.3122 H   0  0  0  0  0  0  0  0  0  0  0  0
    7.6853   -3.0932   -2.1567 H   0  0  0  0  0  0  0  0  0  0  0  0
    8.9698   -0.8802    1.3157 H   0  0  0  0  0  0  0  0  0  0  0  0
    9.5726   -4.6586   -1.8461 H   0  0  0  0  0  0  0  0  0  0  0  0
   10.8528   -2.4562    1.6107 H   0  0  0  0  0  0  0  0  0  0  0  0
   11.1560   -4.3467    0.0303 H   0  0  0  0  0  0  0  0  0  0  0  0
  1  2  1  0
  2  3  1  0
  1  4  1  0
  1  5  1  0
  4  6  2  0
  4  7  1  0
  5  8  1  0
  8  9  2  0
 10  8  1  0
  9 11  1  0
 12 10  2  0
 10 13  1  0
 11 12  1  0
 14 12  1  0
 13 15  2  0
 16 14  2  0
 15 16  1  0
  3 17  1  0
 17 18  2  0
 19 17  1  0
 18 20  1  0
 21 19  2  0
 19 22  1  0
 20 23  1  0
 20 21  1  0
 22 24  2  0
 25 22  1  0
 23 26  2  0
 27 23  1  0
 24 28  1  0
 29 25  2  0
 26 30  1  0
 31 27  2  0
 28 32  2  0
 32 29  1  0
 30 33  2  0
 33 31  1  0
 31 34  1  0
 32 35  1  0
 34 36  1  0
 34 37  2  0
 35 38  1  0
 38 39  1  0
 39 40  2  0
 41 39  1  0
 40 42  1  0
 43 41  2  0
 42 44  2  0
 44 43  1  0
  1 45  1  1
  2 46  1  0
  2 47  1  0
  3 48  1  0
  3 49  1  0
  5 50  1  0
  5 51  1  0
  9 52  1  0
 11 53  1  0
 13 54  1  0
 14 55  1  0
 15 56  1  0
 16 57  1  0
 18 58  1  0
 24 59  1  0
 25 60  1  0
 26 61  1  0
 27 62  1  0
 28 63  1  0
 29 64  1  0
 30 65  1  0
 33 66  1  0
 38 67  1  0
 38 68  1  0
 40 69  1  0
 41 70  1  0
 42 71  1  0
 43 72  1  0
 44 73  1  0
M  CHG  4   2   1   7  -1  34   1  36  -1
M  END
>  <SMILES_raw>  (11) 
O=C(O)[C@H](CC1=CNC2=C1C=CC=C2)NCC3=CN(C4=CC=CC([N+]([O-])=O)=C4)N=C3C5=CC=C(OCC6=CC=CC=C6)C=C5

>  <Protonation_Method>  (11) 
MolScrub

>  <Target_pH>  (11) 
7.4

$$$$
N-((3-(4-(benzyloxy)phenyl)-1-(3-nitrophenyl)-1H-pyrazol-4-yl)methyl)-L-tyrosin
     RDKit          3D

 70 74  0  0  0  0  0  0  0  0999 V2000
   -2.8543   -1.3870   -0.1478 C   0  0  2  0  0  0  0  0  0  0  0  0
   -1.3747   -1.6919   -0.4786 N   0  0  0  0  0  0  0  0  0  0  0  0
   -0.7204   -0.7395   -1.4030 C   0  0  0  0  0  0  0  0  0  0  0  0
   -2.8809   -0.5574    1.1709 C   0  0  0  0  0  0  0  0  0  0  0  0
   -3.5829   -2.7099    0.1229 C   0  0  0  0  0  0  0  0  0  0  0  0
   -1.8543   -0.8425    1.8769 O   0  0  0  0  0  0  0  0  0  0  0  0
   -3.7762    0.3075    1.2928 O   0  0  0  0  0  0  0  0  0  0  0  0
   -5.0403   -2.6480   -0.2759 C   0  0  0  0  0  0  0  0  0  0  0  0
   -6.0036   -2.2127    0.6444 C   0  0  0  0  0  0  0  0  0  0  0  0
   -5.4453   -2.9904   -1.5766 C   0  0  0  0  0  0  0  0  0  0  0  0
   -7.3468   -2.1319    0.2765 C   0  0  0  0  0  0  0  0  0  0  0  0
   -6.7878   -2.8935   -1.9486 C   0  0  0  0  0  0  0  0  0  0  0  0
   -7.7280   -2.4655   -1.0159 C   0  0  0  0  0  0  0  0  0  0  0  0
   -9.0447   -2.3460   -1.3418 O   0  0  0  0  0  0  0  0  0  0  0  0
   -0.6136    0.6564   -0.9165 C   0  0  0  0  0  0  0  0  0  0  0  0
   -1.5836    1.6421   -0.9238 C   0  0  0  0  0  0  0  0  0  0  0  0
    0.5174    1.2940   -0.3387 C   0  0  0  0  0  0  0  0  0  0  0  0
   -1.0454    2.7555   -0.3156 N   0  0  0  0  0  0  0  0  0  0  0  0
    0.2791    2.5842   -0.0862 N   0  0  0  0  0  0  0  0  0  0  0  0
    1.8174    0.7043   -0.0665 C   0  0  0  0  0  0  0  0  0  0  0  0
   -1.6921    3.9815    0.0073 C   0  0  0  0  0  0  0  0  0  0  0  0
    2.9327    1.0889   -0.8188 C   0  0  0  0  0  0  0  0  0  0  0  0
    1.9553   -0.2646    0.9315 C   0  0  0  0  0  0  0  0  0  0  0  0
   -0.9371    5.0309    0.5609 C   0  0  0  0  0  0  0  0  0  0  0  0
   -3.0655    4.1599   -0.2098 C   0  0  0  0  0  0  0  0  0  0  0  0
    4.1748    0.4843   -0.5964 C   0  0  0  0  0  0  0  0  0  0  0  0
    3.1971   -0.8677    1.1478 C   0  0  0  0  0  0  0  0  0  0  0  0
   -1.5400    6.2479    0.8855 C   0  0  0  0  0  0  0  0  0  0  0  0
   -3.6579    5.3925    0.1061 C   0  0  0  0  0  0  0  0  0  0  0  0
    4.3086   -0.5032    0.3827 C   0  0  0  0  0  0  0  0  0  0  0  0
   -2.9008    6.4374    0.6529 C   0  0  0  0  0  0  0  0  0  0  0  0
   -5.0861    5.6055   -0.1646 N   0  0  0  0  0  0  0  0  0  0  0  0
    5.4582   -1.1801    0.6915 O   0  0  0  0  0  0  0  0  0  0  0  0
   -5.5674    6.7138    0.1142 O   0  0  0  0  0  0  0  0  0  0  0  0
   -5.7229    4.6791   -0.6839 O   0  0  0  0  0  0  0  0  0  0  0  0
    6.6300   -0.8330   -0.0423 C   0  0  0  0  0  0  0  0  0  0  0  0
    7.7775   -1.6755    0.4567 C   0  0  0  0  0  0  0  0  0  0  0  0
    8.2434   -2.7681   -0.2880 C   0  0  0  0  0  0  0  0  0  0  0  0
    8.3889   -1.3794    1.6841 C   0  0  0  0  0  0  0  0  0  0  0  0
    9.3134   -3.5356    0.1750 C   0  0  0  0  0  0  0  0  0  0  0  0
    9.4578   -2.1486    2.1452 C   0  0  0  0  0  0  0  0  0  0  0  0
    9.9218   -3.2239    1.3896 C   0  0  0  0  0  0  0  0  0  0  0  0
   -3.2733   -0.8470   -1.0058 H   0  0  0  0  0  0  0  0  0  0  0  0
   -0.9595   -1.5489    0.4765 H   0  0  0  0  0  0  0  0  0  0  0  0
   -1.2126   -2.6683   -0.7226 H   0  0  0  0  0  0  0  0  0  0  0  0
   -1.2791   -0.7797   -2.3455 H   0  0  0  0  0  0  0  0  0  0  0  0
    0.2701   -1.1587   -1.6078 H   0  0  0  0  0  0  0  0  0  0  0  0
   -3.1241   -3.5320   -0.4412 H   0  0  0  0  0  0  0  0  0  0  0  0
   -3.5110   -3.0084    1.1777 H   0  0  0  0  0  0  0  0  0  0  0  0
   -5.7157   -1.9147    1.6530 H   0  0  0  0  0  0  0  0  0  0  0  0
   -4.7216   -3.3327   -2.3120 H   0  0  0  0  0  0  0  0  0  0  0  0
   -8.0879   -1.7954    0.9968 H   0  0  0  0  0  0  0  0  0  0  0  0
   -7.0846   -3.1653   -2.9567 H   0  0  0  0  0  0  0  0  0  0  0  0
   -9.1357   -2.4005   -2.3070 H   0  0  0  0  0  0  0  0  0  0  0  0
   -2.6140    1.6181   -1.2481 H   0  0  0  0  0  0  0  0  0  0  0  0
    2.8385    1.8658   -1.5765 H   0  0  0  0  0  0  0  0  0  0  0  0
    1.1103   -0.5340    1.5664 H   0  0  0  0  0  0  0  0  0  0  0  0
    0.1303    4.9115    0.7507 H   0  0  0  0  0  0  0  0  0  0  0  0
   -3.6868    3.3577   -0.6015 H   0  0  0  0  0  0  0  0  0  0  0  0
    5.0130    0.8159   -1.2014 H   0  0  0  0  0  0  0  0  0  0  0  0
    3.3027   -1.6168    1.9309 H   0  0  0  0  0  0  0  0  0  0  0  0
   -0.9438    7.0498    1.3166 H   0  0  0  0  0  0  0  0  0  0  0  0
   -3.3522    7.3953    0.9024 H   0  0  0  0  0  0  0  0  0  0  0  0
    6.8802    0.2256    0.1046 H   0  0  0  0  0  0  0  0  0  0  0  0
    6.4769   -1.0195   -1.1127 H   0  0  0  0  0  0  0  0  0  0  0  0
    7.7772   -3.0285   -1.2364 H   0  0  0  0  0  0  0  0  0  0  0  0
    8.0294   -0.5476    2.2876 H   0  0  0  0  0  0  0  0  0  0  0  0
    9.6721   -4.3777   -0.4106 H   0  0  0  0  0  0  0  0  0  0  0  0
    9.9264   -1.9107    3.0968 H   0  0  0  0  0  0  0  0  0  0  0  0
   10.7537   -3.8234    1.7495 H   0  0  0  0  0  0  0  0  0  0  0  0
  1  2  1  0
  2  3  1  0
  1  4  1  0
  5  1  1  0
  4  6  2  0
  4  7  1  0
  8  5  1  0
  9  8  2  0
  8 10  1  0
 11  9  1  0
 10 12  2  0
 13 11  2  0
 12 13  1  0
 14 13  1  0
  3 15  1  0
 15 16  2  0
 17 15  1  0
 16 18  1  0
 19 17  2  0
 17 20  1  0
 18 21  1  0
 18 19  1  0
 20 22  2  0
 23 20  1  0
 21 24  2  0
 25 21  1  0
 22 26  1  0
 27 23  2  0
 24 28  1  0
 29 25  2  0
 26 30  2  0
 30 27  1  0
 28 31  2  0
 31 29  1  0
 29 32  1  0
 30 33  1  0
 32 34  1  0
 32 35  2  0
 33 36  1  0
 36 37  1  0
 37 38  2  0
 39 37  1  0
 38 40  1  0
 41 39  2  0
 40 42  2  0
 42 41  1  0
  1 43  1  6
  2 44  1  0
  2 45  1  0
  3 46  1  0
  3 47  1  0
  5 48  1  0
  5 49  1  0
  9 50  1  0
 10 51  1  0
 11 52  1  0
 12 53  1  0
 14 54  1  0
 16 55  1  0
 22 56  1  0
 23 57  1  0
 24 58  1  0
 25 59  1  0
 26 60  1  0
 27 61  1  0
 28 62  1  0
 31 63  1  0
 36 64  1  0
 36 65  1  0
 38 66  1  0
 39 67  1  0
 40 68  1  0
 41 69  1  0
 42 70  1  0
M  CHG  4   2   1   7  -1  32   1  34  -1
M  END
>  <SMILES_raw>  (12) 
OC1=CC=C(C=C1)C[C@@H](C(O)=O)NCC2=CN(C3=CC=CC([N+]([O-])=O)=C3)N=C2C4=CC=C(OCC5=CC=CC=C5)C=C4

>  <Protonation_Method>  (12) 
MolScrub

>  <Target_pH>  (12) 
7.4

$$$$
N-((3-(4-(benzyloxy)phenyl)-1-(3-nitrophenyl)-1H-pyrazol-4-yl)methyl)-L-isoleucin
     RDKit          3D

 68 71  0  0  0  0  0  0  0  0999 V2000
   -3.1995   -2.3882    0.8567 C   0  0  2  0  0  0  0  0  0  0  0  0
   -2.5343   -1.1956    0.1505 N   0  0  0  0  0  0  0  0  0  0  0  0
   -1.8429   -0.2713    1.0915 C   0  0  0  0  0  0  0  0  0  0  0  0
   -2.0518   -3.3215    1.3739 C   0  0  0  0  0  0  0  0  0  0  0  0
   -4.0983   -3.1658   -0.1403 C   0  0  2  0  0  0  0  0  0  0  0  0
   -1.0687   -3.2877    0.5656 O   0  0  0  0  0  0  0  0  0  0  0  0
   -2.1883   -3.7772    2.5308 O   0  0  0  0  0  0  0  0  0  0  0  0
   -5.0959   -2.2420   -0.8864 C   0  0  0  0  0  0  0  0  0  0  0  0
   -4.8430   -4.2902    0.6043 C   0  0  0  0  0  0  0  0  0  0  0  0
   -6.1015   -2.9625   -1.7736 C   0  0  0  0  0  0  0  0  0  0  0  0
   -1.4453    0.9785    0.3942 C   0  0  0  0  0  0  0  0  0  0  0  0
   -2.2936    2.0127    0.0370 C   0  0  0  0  0  0  0  0  0  0  0  0
   -0.1533    1.4173   -0.0188 C   0  0  0  0  0  0  0  0  0  0  0  0
   -1.5232    3.0040   -0.5222 N   0  0  0  0  0  0  0  0  0  0  0  0
   -0.2289    2.6332   -0.5803 N   0  0  0  0  0  0  0  0  0  0  0  0
    1.1506    0.7604    0.1129 C   0  0  0  0  0  0  0  0  0  0  0  0
   -1.9383    4.2837   -0.9898 C   0  0  0  0  0  0  0  0  0  0  0  0
    1.3172   -0.6107   -0.0917 C   0  0  0  0  0  0  0  0  0  0  0  0
    2.2811    1.5266    0.4355 C   0  0  0  0  0  0  0  0  0  0  0  0
   -0.9826    5.1571   -1.5426 C   0  0  0  0  0  0  0  0  0  0  0  0
   -3.2719    4.6996   -0.8861 C   0  0  0  0  0  0  0  0  0  0  0  0
    2.5819   -1.1984    0.0435 C   0  0  0  0  0  0  0  0  0  0  0  0
    3.5456    0.9373    0.5698 C   0  0  0  0  0  0  0  0  0  0  0  0
   -1.3572    6.4239   -2.0020 C   0  0  0  0  0  0  0  0  0  0  0  0
   -3.6341    5.9791   -1.3407 C   0  0  0  0  0  0  0  0  0  0  0  0
    3.6996   -0.4326    0.3762 C   0  0  0  0  0  0  0  0  0  0  0  0
   -2.6834    6.8412   -1.9016 C   0  0  0  0  0  0  0  0  0  0  0  0
   -5.0343    6.4141   -1.2340 N   0  0  0  0  0  0  0  0  0  0  0  0
    4.8695   -1.1343    0.4582 O   0  0  0  0  0  0  0  0  0  0  0  0
   -5.8325    5.6451   -0.6777 O   0  0  0  0  0  0  0  0  0  0  0  0
   -5.3336    7.5225   -1.7007 O   0  0  0  0  0  0  0  0  0  0  0  0
    6.0127   -0.4351    0.9406 C   0  0  0  0  0  0  0  0  0  0  0  0
    7.1687   -1.4047    0.9865 C   0  0  0  0  0  0  0  0  0  0  0  0
    7.3030   -2.2969    2.0608 C   0  0  0  0  0  0  0  0  0  0  0  0
    8.1006   -1.4551   -0.0601 C   0  0  0  0  0  0  0  0  0  0  0  0
    8.3599   -3.2083    2.0949 C   0  0  0  0  0  0  0  0  0  0  0  0
    9.1604   -2.3641   -0.0218 C   0  0  0  0  0  0  0  0  0  0  0  0
    9.2899   -3.2381    1.0562 C   0  0  0  0  0  0  0  0  0  0  0  0
   -3.7920   -1.9750    1.6781 H   0  0  0  0  0  0  0  0  0  0  0  0
   -3.1221   -0.7020   -0.5158 H   0  0  0  0  0  0  0  0  0  0  0  0
   -1.7706   -1.6875   -0.3610 H   0  0  0  0  0  0  0  0  0  0  0  0
   -0.9951   -0.7922    1.5464 H   0  0  0  0  0  0  0  0  0  0  0  0
   -2.5592   -0.0288    1.8850 H   0  0  0  0  0  0  0  0  0  0  0  0
   -3.4578   -3.6458   -0.8946 H   0  0  0  0  0  0  0  0  0  0  0  0
   -4.5415   -1.5608   -1.5428 H   0  0  0  0  0  0  0  0  0  0  0  0
   -5.6410   -1.6197   -0.1665 H   0  0  0  0  0  0  0  0  0  0  0  0
   -5.5459   -3.8767    1.3369 H   0  0  0  0  0  0  0  0  0  0  0  0
   -5.4029   -4.9256   -0.0891 H   0  0  0  0  0  0  0  0  0  0  0  0
   -4.1528   -4.9542    1.1338 H   0  0  0  0  0  0  0  0  0  0  0  0
   -6.6680   -2.2327   -2.3621 H   0  0  0  0  0  0  0  0  0  0  0  0
   -6.8268   -3.5322   -1.1845 H   0  0  0  0  0  0  0  0  0  0  0  0
   -5.5989   -3.6382   -2.4708 H   0  0  0  0  0  0  0  0  0  0  0  0
   -3.3601    2.1212    0.1721 H   0  0  0  0  0  0  0  0  0  0  0  0
    0.4957   -1.2608   -0.3707 H   0  0  0  0  0  0  0  0  0  0  0  0
    2.1832    2.6010    0.5828 H   0  0  0  0  0  0  0  0  0  0  0  0
    0.0631    4.8590   -1.6271 H   0  0  0  0  0  0  0  0  0  0  0  0
   -4.0372    4.0492   -0.4700 H   0  0  0  0  0  0  0  0  0  0  0  0
    2.6942   -2.2701   -0.1144 H   0  0  0  0  0  0  0  0  0  0  0  0
    4.3827    1.5813    0.8143 H   0  0  0  0  0  0  0  0  0  0  0  0
   -0.6074    7.0821   -2.4365 H   0  0  0  0  0  0  0  0  0  0  0  0
   -2.9599    7.8302   -2.2634 H   0  0  0  0  0  0  0  0  0  0  0  0
    6.2648    0.4031    0.2750 H   0  0  0  0  0  0  0  0  0  0  0  0
    5.8316   -0.0441    1.9514 H   0  0  0  0  0  0  0  0  0  0  0  0
    6.5743   -2.2953    2.8697 H   0  0  0  0  0  0  0  0  0  0  0  0
    8.0017   -0.7915   -0.9169 H   0  0  0  0  0  0  0  0  0  0  0  0
    8.4544   -3.9004    2.9285 H   0  0  0  0  0  0  0  0  0  0  0  0
    9.8786   -2.3986   -0.8381 H   0  0  0  0  0  0  0  0  0  0  0  0
   10.1107   -3.9506    1.0812 H   0  0  0  0  0  0  0  0  0  0  0  0
  1  2  1  0
  2  3  1  0
  1  4  1  0
  5  1  1  0
  4  6  2  0
  4  7  1  0
  8  5  1  0
  5  9  1  0
 10  8  1  0
  3 11  1  0
 11 12  2  0
 13 11  1  0
 12 14  1  0
 15 13  2  0
 13 16  1  0
 14 17  1  0
 14 15  1  0
 16 18  2  0
 19 16  1  0
 17 20  2  0
 21 17  1  0
 18 22  1  0
 23 19  2  0
 20 24  1  0
 25 21  2  0
 22 26  2  0
 26 23  1  0
 24 27  2  0
 27 25  1  0
 25 28  1  0
 26 29  1  0
 28 30  1  0
 28 31  2  0
 29 32  1  0
 32 33  1  0
 33 34  2  0
 35 33  1  0
 34 36  1  0
 37 35  2  0
 36 38  2  0
 38 37  1  0
  1 39  1  1
  2 40  1  0
  2 41  1  0
  3 42  1  0
  3 43  1  0
  5 44  1  6
  8 45  1  0
  8 46  1  0
  9 47  1  0
  9 48  1  0
  9 49  1  0
 10 50  1  0
 10 51  1  0
 10 52  1  0
 12 53  1  0
 18 54  1  0
 19 55  1  0
 20 56  1  0
 21 57  1  0
 22 58  1  0
 23 59  1  0
 24 60  1  0
 27 61  1  0
 32 62  1  0
 32 63  1  0
 34 64  1  0
 35 65  1  0
 36 66  1  0
 37 67  1  0
 38 68  1  0
M  CHG  4   2   1   7  -1  28   1  30  -1
M  END
>  <SMILES_raw>  (13) 
CC[C@H](C)[C@@H](C(O)=O)NCC1=CN(C2=CC=CC([N+]([O-])=O)=C2)N=C1C3=CC=C(OCC4=CC=CC=C4)C=C3

>  <Protonation_Method>  (13) 
MolScrub

>  <Target_pH>  (13) 
7.4

$$$$
4-(((3-(4-(benzyloxy)phenyl)-1-(3-nitrophenyl)-1H-pyrazol-4-yl)methyl)amino)benzoic acid
     RDKit          3D

 62 66  0  0  0  0  0  0  0  0999 V2000
    3.6308   -3.8192    1.9445 C   0  0  0  0  0  0  0  0  0  0  0  0
    4.4239   -4.3958    3.0999 C   0  0  0  0  0  0  0  0  0  0  0  0
    5.6639   -4.1159    3.1458 O   0  0  0  0  0  0  0  0  0  0  0  0
    3.7908   -5.1126    3.9388 O   0  0  0  0  0  0  0  0  0  0  0  0
    4.2422   -3.0087    0.9799 C   0  0  0  0  0  0  0  0  0  0  0  0
    2.2615   -4.0756    1.8054 C   0  0  0  0  0  0  0  0  0  0  0  0
    3.5051   -2.4601   -0.0800 C   0  0  0  0  0  0  0  0  0  0  0  0
    1.5299   -3.5268    0.7430 C   0  0  0  0  0  0  0  0  0  0  0  0
    2.1329   -2.6936   -0.2089 C   0  0  0  0  0  0  0  0  0  0  0  0
    1.3569   -2.1838   -1.2372 N   0  0  0  0  0  0  0  0  0  0  0  0
    1.8005   -1.1754   -2.1798 C   0  0  0  0  0  0  0  0  0  0  0  0
    1.8961    0.2212   -1.6580 C   0  0  0  0  0  0  0  0  0  0  0  0
    3.0147    1.0290   -1.5913 C   0  0  0  0  0  0  0  0  0  0  0  0
    0.8642    1.0053   -1.0776 C   0  0  0  0  0  0  0  0  0  0  0  0
    2.6365    2.2031   -0.9835 N   0  0  0  0  0  0  0  0  0  0  0  0
    1.3118    2.2105   -0.7044 N   0  0  0  0  0  0  0  0  0  0  0  0
   -0.5245    0.6306   -0.8581 C   0  0  0  0  0  0  0  0  0  0  0  0
    3.4468    3.3319   -0.6660 C   0  0  0  0  0  0  0  0  0  0  0  0
   -0.9982    0.4573    0.4466 C   0  0  0  0  0  0  0  0  0  0  0  0
   -1.3890    0.4284   -1.9371 C   0  0  0  0  0  0  0  0  0  0  0  0
    2.8561    4.4464   -0.0421 C   0  0  0  0  0  0  0  0  0  0  0  0
    4.8160    3.3551   -0.9645 C   0  0  0  0  0  0  0  0  0  0  0  0
   -2.3274    0.0850    0.6750 C   0  0  0  0  0  0  0  0  0  0  0  0
   -2.7164    0.0588   -1.7053 C   0  0  0  0  0  0  0  0  0  0  0  0
    3.6178    5.5718    0.2819 C   0  0  0  0  0  0  0  0  0  0  0  0
    5.5698    4.4950   -0.6395 C   0  0  0  0  0  0  0  0  0  0  0  0
   -3.1937   -0.1105   -0.4016 C   0  0  0  0  0  0  0  0  0  0  0  0
    4.9781    5.6019   -0.0157 C   0  0  0  0  0  0  0  0  0  0  0  0
    6.9975    4.5394   -0.9760 N   0  0  0  0  0  0  0  0  0  0  0  0
   -4.5120   -0.4654   -0.3202 O   0  0  0  0  0  0  0  0  0  0  0  0
    7.6694    5.4732   -0.5163 O   0  0  0  0  0  0  0  0  0  0  0  0
    7.4446    3.6463   -1.7111 O   0  0  0  0  0  0  0  0  0  0  0  0
   -5.0703   -0.5774    0.9870 C   0  0  0  0  0  0  0  0  0  0  0  0
   -6.5388   -0.8982    0.8457 C   0  0  0  0  0  0  0  0  0  0  0  0
   -7.4682    0.1225    0.5969 C   0  0  0  0  0  0  0  0  0  0  0  0
   -6.9906   -2.2227    0.9272 C   0  0  0  0  0  0  0  0  0  0  0  0
   -8.8242   -0.1742    0.4523 C   0  0  0  0  0  0  0  0  0  0  0  0
   -8.3480   -2.5173    0.7873 C   0  0  0  0  0  0  0  0  0  0  0  0
   -9.2637   -1.4933    0.5516 C   0  0  0  0  0  0  0  0  0  0  0  0
    5.3084   -2.8033    1.0620 H   0  0  0  0  0  0  0  0  0  0  0  0
    1.7630   -4.7082    2.5379 H   0  0  0  0  0  0  0  0  0  0  0  0
    4.0429   -1.8462   -0.7924 H   0  0  0  0  0  0  0  0  0  0  0  0
    0.4704   -3.7578    0.6776 H   0  0  0  0  0  0  0  0  0  0  0  0
    0.3579   -2.3284   -1.1665 H   0  0  0  0  0  0  0  0  0  0  0  0
    1.0840   -1.1663   -3.0122 H   0  0  0  0  0  0  0  0  0  0  0  0
    2.7507   -1.4767   -2.6401 H   0  0  0  0  0  0  0  0  0  0  0  0
    4.0322    0.8333   -1.8946 H   0  0  0  0  0  0  0  0  0  0  0  0
   -0.3265    0.6026    1.2918 H   0  0  0  0  0  0  0  0  0  0  0  0
   -1.0412    0.5665   -2.9575 H   0  0  0  0  0  0  0  0  0  0  0  0
    1.7913    4.4506    0.1972 H   0  0  0  0  0  0  0  0  0  0  0  0
    5.3044    2.5111   -1.4424 H   0  0  0  0  0  0  0  0  0  0  0  0
   -2.6428   -0.0444    1.7052 H   0  0  0  0  0  0  0  0  0  0  0  0
   -3.3873   -0.0944   -2.5471 H   0  0  0  0  0  0  0  0  0  0  0  0
    3.1429    6.4258    0.7620 H   0  0  0  0  0  0  0  0  0  0  0  0
    5.5573    6.4877    0.2375 H   0  0  0  0  0  0  0  0  0  0  0  0
   -4.5718   -1.3767    1.5501 H   0  0  0  0  0  0  0  0  0  0  0  0
   -4.9649    0.3655    1.5392 H   0  0  0  0  0  0  0  0  0  0  0  0
   -7.1351    1.1542    0.5090 H   0  0  0  0  0  0  0  0  0  0  0  0
   -6.2842   -3.0329    1.0959 H   0  0  0  0  0  0  0  0  0  0  0  0
   -9.5363    0.6233    0.2574 H   0  0  0  0  0  0  0  0  0  0  0  0
   -8.6887   -3.5473    0.8568 H   0  0  0  0  0  0  0  0  0  0  0  0
  -10.3193   -1.7243    0.4389 H   0  0  0  0  0  0  0  0  0  0  0  0
  1  2  1  0
  2  3  2  0
  2  4  1  0
  1  5  2  0
  6  1  1  0
  5  7  1  0
  8  6  2  0
  7  9  2  0
  9  8  1  0
  9 10  1  0
 10 11  1  0
 11 12  1  0
 12 13  2  0
 14 12  1  0
 13 15  1  0
 16 14  2  0
 14 17  1  0
 15 18  1  0
 15 16  1  0
 17 19  2  0
 20 17  1  0
 18 21  2  0
 22 18  1  0
 19 23  1  0
 24 20  2  0
 21 25  1  0
 26 22  2  0
 23 27  2  0
 27 24  1  0
 25 28  2  0
 28 26  1  0
 26 29  1  0
 27 30  1  0
 29 31  1  0
 29 32  2  0
 30 33  1  0
 33 34  1  0
 34 35  2  0
 36 34  1  0
 35 37  1  0
 38 36  2  0
 37 39  2  0
 39 38  1  0
  5 40  1  0
  6 41  1  0
  7 42  1  0
  8 43  1  0
 10 44  1  0
 11 45  1  0
 11 46  1  0
 13 47  1  0
 19 48  1  0
 20 49  1  0
 21 50  1  0
 22 51  1  0
 23 52  1  0
 24 53  1  0
 25 54  1  0
 28 55  1  0
 33 56  1  0
 33 57  1  0
 35 58  1  0
 36 59  1  0
 37 60  1  0
 38 61  1  0
 39 62  1  0
M  CHG  3   4  -1  29   1  31  -1
M  END
>  <SMILES_raw>  (14) 
O=C(O)C1=CC=C(NCC2=CN(C3=CC=CC([N+]([O-])=O)=C3)N=C2C4=CC=C(OCC5=CC=CC=C5)C=C4)C=C1

>  <Protonation_Method>  (14) 
MolScrub

>  <Target_pH>  (14) 
7.4

$$$$
N-((3-(4-((3-chlorobenzyl)oxy)phenyl) -1-(3-nitrophenyl)-1H-pyrazol-4-yl)methyl)-L-methionin
     RDKit          3D

 66 69  0  0  0  0  0  0  0  0999 V2000
   -3.4379    2.7205    1.1968 C   0  0  2  0  0  0  0  0  0  0  0  0
   -2.7214    1.4490    0.7492 N   0  0  0  0  0  0  0  0  0  0  0  0
   -2.0312    0.7450    1.8558 C   0  0  0  0  0  0  0  0  0  0  0  0
   -4.8219    2.3325    1.8125 C   0  0  0  0  0  0  0  0  0  0  0  0
   -3.7555    3.6171   -0.0031 C   0  0  0  0  0  0  0  0  0  0  0  0
   -5.1584    1.1679    1.4207 O   0  0  0  0  0  0  0  0  0  0  0  0
   -5.3084    3.1453    2.6285 O   0  0  0  0  0  0  0  0  0  0  0  0
   -2.5704    4.0589   -0.8643 C   0  0  0  0  0  0  0  0  0  0  0  0
   -1.1515    4.7289    0.0625 S   0  0  0  0  0  0  0  0  0  0  0  0
   -1.8997    6.2656    0.6681 C   0  0  0  0  0  0  0  0  0  0  0  0
   -1.6233   -0.6157    1.4230 C   0  0  0  0  0  0  0  0  0  0  0  0
   -2.4051   -1.7553    1.4442 C   0  0  0  0  0  0  0  0  0  0  0  0
   -0.3928   -1.0432    0.8525 C   0  0  0  0  0  0  0  0  0  0  0  0
   -1.6625   -2.7765    0.9010 N   0  0  0  0  0  0  0  0  0  0  0  0
   -0.4581   -2.3267    0.4807 N   0  0  0  0  0  0  0  0  0  0  0  0
    0.8164   -0.2642    0.6064 C   0  0  0  0  0  0  0  0  0  0  0  0
   -2.0327   -4.1418    0.7377 C   0  0  0  0  0  0  0  0  0  0  0  0
    1.4001   -0.2536   -0.6659 C   0  0  0  0  0  0  0  0  0  0  0  0
    1.4213    0.4638    1.6367 C   0  0  0  0  0  0  0  0  0  0  0  0
   -1.1704   -5.0086    0.0440 C   0  0  0  0  0  0  0  0  0  0  0  0
   -3.2256   -4.6409    1.2741 C   0  0  0  0  0  0  0  0  0  0  0  0
    2.5630    0.4872   -0.9131 C   0  0  0  0  0  0  0  0  0  0  0  0
    2.5837    1.1998    1.3877 C   0  0  0  0  0  0  0  0  0  0  0  0
   -1.5077   -6.3525   -0.1360 C   0  0  0  0  0  0  0  0  0  0  0  0
   -3.5487   -5.9950    1.0946 C   0  0  0  0  0  0  0  0  0  0  0  0
    3.1579    1.2192    0.1138 C   0  0  0  0  0  0  0  0  0  0  0  0
   -2.7008   -6.8496    0.3848 C   0  0  0  0  0  0  0  0  0  0  0  0
   -4.8012   -6.5229    1.6564 N   0  0  0  0  0  0  0  0  0  0  0  0
    4.3068    1.9543    0.0249 O   0  0  0  0  0  0  0  0  0  0  0  0
   -5.1372   -7.6737    1.3426 O   0  0  0  0  0  0  0  0  0  0  0  0
   -5.4495   -5.7820    2.4094 O   0  0  0  0  0  0  0  0  0  0  0  0
    4.8572    2.2104   -1.2702 C   0  0  0  0  0  0  0  0  0  0  0  0
    5.7394    1.1010   -1.8023 C   0  0  0  0  0  0  0  0  0  0  0  0
    6.3181    0.1399   -0.9629 C   0  0  0  0  0  0  0  0  0  0  0  0
    6.0267    1.0561   -3.1756 C   0  0  0  0  0  0  0  0  0  0  0  0
    7.1342   -0.8654   -1.4873 C   0  0  0  0  0  0  0  0  0  0  0  0
    6.8456    0.0521   -3.6932 C   0  0  0  0  0  0  0  0  0  0  0  0
    7.3955   -0.9116   -2.8547 C   0  0  0  0  0  0  0  0  0  0  0  0
    7.1734   -0.0014   -5.3807 Cl  0  0  0  0  0  0  0  0  0  0  0  0
   -2.8052    3.2163    1.9374 H   0  0  0  0  0  0  0  0  0  0  0  0
   -2.1384    1.5443   -0.0825 H   0  0  0  0  0  0  0  0  0  0  0  0
   -3.5494    0.8514    0.5220 H   0  0  0  0  0  0  0  0  0  0  0  0
   -2.7219    0.6863    2.7063 H   0  0  0  0  0  0  0  0  0  0  0  0
   -1.1805    1.3651    2.1492 H   0  0  0  0  0  0  0  0  0  0  0  0
   -4.4795    3.1162   -0.6646 H   0  0  0  0  0  0  0  0  0  0  0  0
   -4.2736    4.5123    0.3593 H   0  0  0  0  0  0  0  0  0  0  0  0
   -2.8979    4.8110   -1.5899 H   0  0  0  0  0  0  0  0  0  0  0  0
   -2.2017    3.2118   -1.4512 H   0  0  0  0  0  0  0  0  0  0  0  0
   -2.3696    6.8175   -0.1507 H   0  0  0  0  0  0  0  0  0  0  0  0
   -1.1210    6.8979    1.1069 H   0  0  0  0  0  0  0  0  0  0  0  0
   -2.6426    6.0620    1.4421 H   0  0  0  0  0  0  0  0  0  0  0  0
   -3.4214   -1.8979    1.7852 H   0  0  0  0  0  0  0  0  0  0  0  0
    0.9637   -0.8381   -1.4743 H   0  0  0  0  0  0  0  0  0  0  0  0
    1.0210    0.4458    2.6459 H   0  0  0  0  0  0  0  0  0  0  0  0
   -0.2234   -4.6467   -0.3623 H   0  0  0  0  0  0  0  0  0  0  0  0
   -3.8910   -4.0101    1.8497 H   0  0  0  0  0  0  0  0  0  0  0  0
    2.9884    0.4445   -1.9100 H   0  0  0  0  0  0  0  0  0  0  0  0
    3.0581    1.7536    2.1973 H   0  0  0  0  0  0  0  0  0  0  0  0
   -0.8296   -7.0142   -0.6709 H   0  0  0  0  0  0  0  0  0  0  0  0
   -2.9434   -7.8997    0.2449 H   0  0  0  0  0  0  0  0  0  0  0  0
    4.0652    2.4740   -1.9844 H   0  0  0  0  0  0  0  0  0  0  0  0
    5.4858    3.1025   -1.1636 H   0  0  0  0  0  0  0  0  0  0  0  0
    6.1311    0.1621    0.1095 H   0  0  0  0  0  0  0  0  0  0  0  0
    5.6118    1.8090   -3.8404 H   0  0  0  0  0  0  0  0  0  0  0  0
    7.5677   -1.6133   -0.8262 H   0  0  0  0  0  0  0  0  0  0  0  0
    8.0300   -1.6975   -3.2556 H   0  0  0  0  0  0  0  0  0  0  0  0
  1  2  1  0
  2  3  1  0
  1  4  1  0
  5  1  1  0
  4  6  2  0
  4  7  1  0
  8  5  1  0
  9  8  1  0
 10  9  1  0
  3 11  1  0
 11 12  2  0
 13 11  1  0
 12 14  1  0
 15 13  2  0
 13 16  1  0
 14 17  1  0
 14 15  1  0
 16 18  2  0
 19 16  1  0
 17 20  2  0
 21 17  1  0
 18 22  1  0
 23 19  2  0
 20 24  1  0
 25 21  2  0
 22 26  2  0
 26 23  1  0
 24 27  2  0
 27 25  1  0
 25 28  1  0
 26 29  1  0
 28 30  1  0
 28 31  2  0
 29 32  1  0
 32 33  1  0
 33 34  2  0
 35 33  1  0
 34 36  1  0
 37 35  2  0
 36 38  2  0
 38 37  1  0
 37 39  1  0
  1 40  1  1
  2 41  1  0
  2 42  1  0
  3 43  1  0
  3 44  1  0
  5 45  1  0
  5 46  1  0
  8 47  1  0
  8 48  1  0
 10 49  1  0
 10 50  1  0
 10 51  1  0
 12 52  1  0
 18 53  1  0
 19 54  1  0
 20 55  1  0
 21 56  1  0
 22 57  1  0
 23 58  1  0
 24 59  1  0
 27 60  1  0
 32 61  1  0
 32 62  1  0
 34 63  1  0
 35 64  1  0
 36 65  1  0
 38 66  1  0
M  CHG  4   2   1   7  -1  28   1  30  -1
M  END
>  <SMILES_raw>  (15) 
CSCC[C@@H](C(O)=O)NCC1=CN(C2=CC=CC([N+]([O-])=O)=C2)N=C1C3=CC=C(OCC4=CC=CC(Cl)=C4)C=C3

>  <Protonation_Method>  (15) 
MolScrub

>  <Target_pH>  (15) 
7.4

$$$$
N-((3-(4-((3-chlorobenzyl)oxy)phenyl) -1-(3-nitrophenyl)-1H-pyrazol-4-yl)methyl)-L-tryptophan
     RDKit          3D

 73 78  0  0  0  0  0  0  0  0999 V2000
   -3.7770   -0.1351   -0.4142 C   0  0  2  0  0  0  0  0  0  0  0  0
   -2.5712    0.6985    0.0671 N   0  0  0  0  0  0  0  0  0  0  0  0
   -1.6576    1.1058   -1.0211 C   0  0  0  0  0  0  0  0  0  0  0  0
   -4.8703    0.8674   -0.9041 C   0  0  0  0  0  0  0  0  0  0  0  0
   -4.3600   -0.9031    0.7779 C   0  0  0  0  0  0  0  0  0  0  0  0
   -5.7053    0.4709   -1.7426 O   0  0  0  0  0  0  0  0  0  0  0  0
   -4.6390    2.0217   -0.4033 O   0  0  0  0  0  0  0  0  0  0  0  0
   -4.8910   -2.2457    0.3783 C   0  0  0  0  0  0  0  0  0  0  0  0
   -6.1203   -2.4801   -0.2050 C   0  0  0  0  0  0  0  0  0  0  0  0
   -4.2361   -3.5160    0.4869 C   0  0  0  0  0  0  0  0  0  0  0  0
   -6.2345   -3.8171   -0.4592 N   0  0  0  0  0  0  0  0  0  0  0  0
   -5.0995   -4.4759   -0.0459 C   0  0  0  0  0  0  0  0  0  0  0  0
   -2.9850   -3.9430    0.9807 C   0  0  0  0  0  0  0  0  0  0  0  0
   -4.7788   -5.8377   -0.1092 C   0  0  0  0  0  0  0  0  0  0  0  0
   -2.6481   -5.3014    0.9232 C   0  0  0  0  0  0  0  0  0  0  0  0
   -3.5320   -6.2334    0.3846 C   0  0  0  0  0  0  0  0  0  0  0  0
   -0.8096    2.2454   -0.5963 C   0  0  0  0  0  0  0  0  0  0  0  0
   -1.2090    3.5548   -0.4009 C   0  0  0  0  0  0  0  0  0  0  0  0
    0.5803    2.2573   -0.3175 C   0  0  0  0  0  0  0  0  0  0  0  0
   -0.0952    4.2775   -0.0406 N   0  0  0  0  0  0  0  0  0  0  0  0
    1.0032    3.4841    0.0008 N   0  0  0  0  0  0  0  0  0  0  0  0
    1.5045    1.1348   -0.3496 C   0  0  0  0  0  0  0  0  0  0  0  0
   -0.0067    5.6640    0.2766 C   0  0  0  0  0  0  0  0  0  0  0  0
    2.4853    1.0640   -1.3433 C   0  0  0  0  0  0  0  0  0  0  0  0
    1.4056    0.1133    0.6018 C   0  0  0  0  0  0  0  0  0  0  0  0
    1.2438    6.2112    0.6168 C   0  0  0  0  0  0  0  0  0  0  0  0
   -1.1404    6.4892    0.2689 C   0  0  0  0  0  0  0  0  0  0  0  0
    3.3563   -0.0285   -1.3933 C   0  0  0  0  0  0  0  0  0  0  0  0
    2.2766   -0.9756    0.5479 C   0  0  0  0  0  0  0  0  0  0  0  0
    1.3662    7.5639    0.9480 C   0  0  0  0  0  0  0  0  0  0  0  0
   -1.0050    7.8461    0.6098 C   0  0  0  0  0  0  0  0  0  0  0  0
    3.2598   -1.0463   -0.4423 C   0  0  0  0  0  0  0  0  0  0  0  0
    0.2431    8.3870    0.9473 C   0  0  0  0  0  0  0  0  0  0  0  0
   -2.1940    8.7097    0.6300 N   0  0  0  0  0  0  0  0  0  0  0  0
    4.0521   -2.1570   -0.3778 O   0  0  0  0  0  0  0  0  0  0  0  0
   -3.2346    8.2676    0.1191 O   0  0  0  0  0  0  0  0  0  0  0  0
   -2.0895    9.8183    1.1711 O   0  0  0  0  0  0  0  0  0  0  0  0
    5.2721   -2.1191   -1.1200 C   0  0  0  0  0  0  0  0  0  0  0  0
    6.1385   -3.2698   -0.6672 C   0  0  0  0  0  0  0  0  0  0  0  0
    6.4126   -4.3478   -1.5220 C   0  0  0  0  0  0  0  0  0  0  0  0
    6.6852   -3.2686    0.6262 C   0  0  0  0  0  0  0  0  0  0  0  0
    7.2272   -5.4009   -1.0976 C   0  0  0  0  0  0  0  0  0  0  0  0
    7.5003   -4.3211    1.0434 C   0  0  0  0  0  0  0  0  0  0  0  0
    7.7742   -5.3852    0.1862 C   0  0  0  0  0  0  0  0  0  0  0  0
    8.1773   -4.3027    2.6270 Cl  0  0  0  0  0  0  0  0  0  0  0  0
   -3.4125   -0.7865   -1.2157 H   0  0  0  0  0  0  0  0  0  0  0  0
   -3.0839    1.5766    0.3275 H   0  0  0  0  0  0  0  0  0  0  0  0
   -2.1061    0.3466    0.8997 H   0  0  0  0  0  0  0  0  0  0  0  0
   -1.0689    0.2234   -1.2883 H   0  0  0  0  0  0  0  0  0  0  0  0
   -2.2608    1.3956   -1.8893 H   0  0  0  0  0  0  0  0  0  0  0  0
   -3.5922   -1.0605    1.5473 H   0  0  0  0  0  0  0  0  0  0  0  0
   -5.1611   -0.3331    1.2705 H   0  0  0  0  0  0  0  0  0  0  0  0
   -6.9132   -1.7955   -0.4910 H   0  0  0  0  0  0  0  0  0  0  0  0
   -7.0330   -4.2534   -0.8989 H   0  0  0  0  0  0  0  0  0  0  0  0
   -2.2871   -3.2357    1.4144 H   0  0  0  0  0  0  0  0  0  0  0  0
   -5.4692   -6.5659   -0.5292 H   0  0  0  0  0  0  0  0  0  0  0  0
   -1.6853   -5.6318    1.3080 H   0  0  0  0  0  0  0  0  0  0  0  0
   -3.2534   -7.2848    0.3523 H   0  0  0  0  0  0  0  0  0  0  0  0
   -2.1859    4.0096   -0.5067 H   0  0  0  0  0  0  0  0  0  0  0  0
    2.5752    1.8585   -2.0825 H   0  0  0  0  0  0  0  0  0  0  0  0
    0.6732    0.1662    1.4035 H   0  0  0  0  0  0  0  0  0  0  0  0
    2.1396    5.5903    0.6322 H   0  0  0  0  0  0  0  0  0  0  0  0
   -2.1264    6.1026    0.0204 H   0  0  0  0  0  0  0  0  0  0  0  0
    4.0911   -0.0571   -2.1907 H   0  0  0  0  0  0  0  0  0  0  0  0
    2.2070   -1.7664    1.2924 H   0  0  0  0  0  0  0  0  0  0  0  0
    2.3399    7.9711    1.2104 H   0  0  0  0  0  0  0  0  0  0  0  0
    0.3512    9.4372    1.2137 H   0  0  0  0  0  0  0  0  0  0  0  0
    5.0562   -2.2052   -2.1922 H   0  0  0  0  0  0  0  0  0  0  0  0
    5.8207   -1.1829   -0.9408 H   0  0  0  0  0  0  0  0  0  0  0  0
    5.9940   -4.3769   -2.5275 H   0  0  0  0  0  0  0  0  0  0  0  0
    6.4716   -2.4446    1.3039 H   0  0  0  0  0  0  0  0  0  0  0  0
    7.4358   -6.2332   -1.7674 H   0  0  0  0  0  0  0  0  0  0  0  0
    8.4096   -6.2055    0.5125 H   0  0  0  0  0  0  0  0  0  0  0  0
  1  2  1  0
  2  3  1  0
  1  4  1  0
  1  5  1  0
  4  6  2  0
  4  7  1  0
  5  8  1  0
  8  9  2  0
 10  8  1  0
  9 11  1  0
 12 10  2  0
 10 13  1  0
 11 12  1  0
 14 12  1  0
 13 15  2  0
 16 14  2  0
 15 16  1  0
  3 17  1  0
 17 18  2  0
 19 17  1  0
 18 20  1  0
 21 19  2  0
 19 22  1  0
 20 23  1  0
 20 21  1  0
 22 24  2  0
 25 22  1  0
 23 26  2  0
 27 23  1  0
 24 28  1  0
 29 25  2  0
 26 30  1  0
 31 27  2  0
 28 32  2  0
 32 29  1  0
 30 33  2  0
 33 31  1  0
 31 34  1  0
 32 35  1  0
 34 36  1  0
 34 37  2  0
 35 38  1  0
 38 39  1  0
 39 40  2  0
 41 39  1  0
 40 42  1  0
 43 41  2  0
 42 44  2  0
 44 43  1  0
 43 45  1  0
  1 46  1  6
  2 47  1  0
  2 48  1  0
  3 49  1  0
  3 50  1  0
  5 51  1  0
  5 52  1  0
  9 53  1  0
 11 54  1  0
 13 55  1  0
 14 56  1  0
 15 57  1  0
 16 58  1  0
 18 59  1  0
 24 60  1  0
 25 61  1  0
 26 62  1  0
 27 63  1  0
 28 64  1  0
 29 65  1  0
 30 66  1  0
 33 67  1  0
 38 68  1  0
 38 69  1  0
 40 70  1  0
 41 71  1  0
 42 72  1  0
 44 73  1  0
M  CHG  4   2   1   7  -1  34   1  36  -1
M  END
>  <SMILES_raw>  (16) 
O=C(O)[C@H](CC1=CNC2=C1C=CC=C2)NCC3=CN(C4=CC=CC([N+]([O-])=O)=C4)N=C3C5=CC=C(OCC6=CC=CC(Cl)=C6)C=C5

>  <Protonation_Method>  (16) 
MolScrub

>  <Target_pH>  (16) 
7.4

$$$$
N-((3-(4-((3-chlorobenzyl)oxy)phenyl)-1-(3-nitrophenyl)-1H-pyrazol-4-yl)methyl)-L-tyrosin
     RDKit          3D

 70 74  0  0  0  0  0  0  0  0999 V2000
   -2.4277    2.3961    0.5013 C   0  0  2  0  0  0  0  0  0  0  0  0
   -1.9509    0.9380    0.5200 N   0  0  0  0  0  0  0  0  0  0  0  0
   -1.4963    0.3865   -0.7673 C   0  0  0  0  0  0  0  0  0  0  0  0
   -1.3133    3.2942    1.1115 C   0  0  0  0  0  0  0  0  0  0  0  0
   -3.6688    2.5345    1.3902 C   0  0  0  0  0  0  0  0  0  0  0  0
   -0.4167    2.5591    1.6503 O   0  0  0  0  0  0  0  0  0  0  0  0
   -1.4182    4.5297    0.9622 O   0  0  0  0  0  0  0  0  0  0  0  0
   -4.8952    1.9424    0.7261 C   0  0  0  0  0  0  0  0  0  0  0  0
   -5.2873    0.6191    0.9753 C   0  0  0  0  0  0  0  0  0  0  0  0
   -5.6448    2.7183   -0.1724 C   0  0  0  0  0  0  0  0  0  0  0  0
   -6.3921    0.0749    0.3155 C   0  0  0  0  0  0  0  0  0  0  0  0
   -6.7608    2.1807   -0.8185 C   0  0  0  0  0  0  0  0  0  0  0  0
   -7.1185    0.8604   -0.5727 C   0  0  0  0  0  0  0  0  0  0  0  0
   -8.1884    0.2909   -1.1966 O   0  0  0  0  0  0  0  0  0  0  0  0
   -1.0142   -1.0027   -0.5671 C   0  0  0  0  0  0  0  0  0  0  0  0
   -1.7738   -2.1495   -0.4208 C   0  0  0  0  0  0  0  0  0  0  0  0
    0.3283   -1.4555   -0.4495 C   0  0  0  0  0  0  0  0  0  0  0  0
   -0.9039   -3.1939   -0.1826 N   0  0  0  0  0  0  0  0  0  0  0  0
    0.3799   -2.7766   -0.2407 N   0  0  0  0  0  0  0  0  0  0  0  0
    1.5506   -0.6685   -0.5185 C   0  0  0  0  0  0  0  0  0  0  0  0
   -1.2193   -4.5500    0.1190 C   0  0  0  0  0  0  0  0  0  0  0  0
    2.4464   -0.8458   -1.5733 C   0  0  0  0  0  0  0  0  0  0  0  0
    1.8388    0.2765    0.4684 C   0  0  0  0  0  0  0  0  0  0  0  0
   -0.1761   -5.4432    0.4296 C   0  0  0  0  0  0  0  0  0  0  0  0
   -2.5462   -4.9994    0.1550 C   0  0  0  0  0  0  0  0  0  0  0  0
    3.6094   -0.0701   -1.6429 C   0  0  0  0  0  0  0  0  0  0  0  0
    3.0037    1.0497    0.3976 C   0  0  0  0  0  0  0  0  0  0  0  0
   -0.4529   -6.7688    0.7716 C   0  0  0  0  0  0  0  0  0  0  0  0
   -2.8111   -6.3336    0.5052 C   0  0  0  0  0  0  0  0  0  0  0  0
    3.8999    0.8745   -0.6573 C   0  0  0  0  0  0  0  0  0  0  0  0
   -1.7715   -7.2193    0.8159 C   0  0  0  0  0  0  0  0  0  0  0  0
   -4.2028   -6.8117    0.5211 N   0  0  0  0  0  0  0  0  0  0  0  0
    5.0723    1.5577   -0.8388 O   0  0  0  0  0  0  0  0  0  0  0  0
   -5.0923   -5.9981    0.2270 O   0  0  0  0  0  0  0  0  0  0  0  0
   -4.4048   -8.0003    0.8056 O   0  0  0  0  0  0  0  0  0  0  0  0
    5.4312    2.4909    0.1813 C   0  0  0  0  0  0  0  0  0  0  0  0
    6.7792    3.0791   -0.1585 C   0  0  0  0  0  0  0  0  0  0  0  0
    6.9053    4.0132   -1.1975 C   0  0  0  0  0  0  0  0  0  0  0  0
    7.9264    2.6946    0.5538 C   0  0  0  0  0  0  0  0  0  0  0  0
    8.1505    4.5656   -1.5063 C   0  0  0  0  0  0  0  0  0  0  0  0
    9.1665    3.2548    0.2432 C   0  0  0  0  0  0  0  0  0  0  0  0
    9.2828    4.1902   -0.7807 C   0  0  0  0  0  0  0  0  0  0  0  0
   10.5632    2.7871    1.1390 Cl  0  0  0  0  0  0  0  0  0  0  0  0
   -2.6172    2.6752   -0.5429 H   0  0  0  0  0  0  0  0  0  0  0  0
   -1.1008    1.0548    1.1326 H   0  0  0  0  0  0  0  0  0  0  0  0
   -2.5745    0.3183    1.0363 H   0  0  0  0  0  0  0  0  0  0  0  0
   -0.7180    1.0445   -1.1718 H   0  0  0  0  0  0  0  0  0  0  0  0
   -2.3534    0.3965   -1.4541 H   0  0  0  0  0  0  0  0  0  0  0  0
   -3.4968    2.0317    2.3564 H   0  0  0  0  0  0  0  0  0  0  0  0
   -3.8665    3.5880    1.6454 H   0  0  0  0  0  0  0  0  0  0  0  0
   -4.7628   -0.0015    1.6989 H   0  0  0  0  0  0  0  0  0  0  0  0
   -5.3743    3.7583   -0.3639 H   0  0  0  0  0  0  0  0  0  0  0  0
   -6.6920   -0.9497    0.5104 H   0  0  0  0  0  0  0  0  0  0  0  0
   -7.3427    2.8194   -1.4815 H   0  0  0  0  0  0  0  0  0  0  0  0
   -8.5802    0.9591   -1.7892 H   0  0  0  0  0  0  0  0  0  0  0  0
   -2.8436   -2.2940   -0.4434 H   0  0  0  0  0  0  0  0  0  0  0  0
    2.2494   -1.5862   -2.3436 H   0  0  0  0  0  0  0  0  0  0  0  0
    1.1766    0.4231    1.3175 H   0  0  0  0  0  0  0  0  0  0  0  0
    0.8639   -5.1046    0.4434 H   0  0  0  0  0  0  0  0  0  0  0  0
   -3.3781   -4.3358   -0.0476 H   0  0  0  0  0  0  0  0  0  0  0  0
    4.3000   -0.2151   -2.4696 H   0  0  0  0  0  0  0  0  0  0  0  0
    3.1696    1.7707    1.1912 H   0  0  0  0  0  0  0  0  0  0  0  0
    0.3626   -7.4448    1.0226 H   0  0  0  0  0  0  0  0  0  0  0  0
   -1.9671   -8.2563    1.0915 H   0  0  0  0  0  0  0  0  0  0  0  0
    4.6962    3.3041    0.2387 H   0  0  0  0  0  0  0  0  0  0  0  0
    5.4906    1.9915    1.1566 H   0  0  0  0  0  0  0  0  0  0  0  0
    6.0301    4.3125   -1.7758 H   0  0  0  0  0  0  0  0  0  0  0  0
    7.8557    1.9554    1.3486 H   0  0  0  0  0  0  0  0  0  0  0  0
    8.2367    5.2896   -2.3103 H   0  0  0  0  0  0  0  0  0  0  0  0
   10.2500    4.6237   -1.0235 H   0  0  0  0  0  0  0  0  0  0  0  0
  1  2  1  0
  2  3  1  0
  1  4  1  0
  5  1  1  0
  4  6  2  0
  4  7  1  0
  8  5  1  0
  9  8  2  0
  8 10  1  0
 11  9  1  0
 10 12  2  0
 13 11  2  0
 12 13  1  0
 14 13  1  0
  3 15  1  0
 15 16  2  0
 17 15  1  0
 16 18  1  0
 19 17  2  0
 17 20  1  0
 18 21  1  0
 18 19  1  0
 20 22  2  0
 23 20  1  0
 21 24  2  0
 25 21  1  0
 22 26  1  0
 27 23  2  0
 24 28  1  0
 29 25  2  0
 26 30  2  0
 30 27  1  0
 28 31  2  0
 31 29  1  0
 29 32  1  0
 30 33  1  0
 32 34  1  0
 32 35  2  0
 33 36  1  0
 36 37  1  0
 37 38  2  0
 39 37  1  0
 38 40  1  0
 41 39  2  0
 40 42  2  0
 42 41  1  0
 41 43  1  0
  1 44  1  6
  2 45  1  0
  2 46  1  0
  3 47  1  0
  3 48  1  0
  5 49  1  0
  5 50  1  0
  9 51  1  0
 10 52  1  0
 11 53  1  0
 12 54  1  0
 14 55  1  0
 16 56  1  0
 22 57  1  0
 23 58  1  0
 24 59  1  0
 25 60  1  0
 26 61  1  0
 27 62  1  0
 28 63  1  0
 31 64  1  0
 36 65  1  0
 36 66  1  0
 38 67  1  0
 39 68  1  0
 40 69  1  0
 42 70  1  0
M  CHG  4   2   1   7  -1  32   1  34  -1
M  END
>  <SMILES_raw>  (17) 
OC1=CC=C(C=C1)C[C@@H](C(O)=O)NCC2=CN(C3=CC=CC([N+]([O-])=O)=C3)N=C2C4=CC=C(OCC5=CC=CC(Cl)=C5)C=C4

>  <Protonation_Method>  (17) 
MolScrub

>  <Target_pH>  (17) 
7.4

$$$$
N-((3-(4-((4-chlorobenzyl)oxy)phenyl)-1-(3-nitrophenyl)-1H-pyrazol-4-yl)methyl)-L-leucin
     RDKit          3D

 68 71  0  0  0  0  0  0  0  0999 V2000
   -4.1882   -1.0670   -0.3577 C   0  0  2  0  0  0  0  0  0  0  0  0
   -2.8461   -1.0489    0.3831 N   0  0  0  0  0  0  0  0  0  0  0  0
   -1.6465   -0.6350   -0.3647 C   0  0  0  0  0  0  0  0  0  0  0  0
   -5.2467   -0.2792    0.4789 C   0  0  0  0  0  0  0  0  0  0  0  0
   -4.5650   -2.4848   -0.7933 C   0  0  0  0  0  0  0  0  0  0  0  0
   -6.4308   -0.2946    0.0888 O   0  0  0  0  0  0  0  0  0  0  0  0
   -4.6637    0.2990    1.4568 O   0  0  0  0  0  0  0  0  0  0  0  0
   -4.4759   -3.6190    0.2522 C   0  0  0  0  0  0  0  0  0  0  0  0
   -4.9694   -4.9296   -0.3697 C   0  0  0  0  0  0  0  0  0  0  0  0
   -5.2615   -3.3341    1.5317 C   0  0  0  0  0  0  0  0  0  0  0  0
   -1.3573    0.8202   -0.2862 C   0  0  0  0  0  0  0  0  0  0  0  0
   -2.2396    1.8844   -0.2469 C   0  0  0  0  0  0  0  0  0  0  0  0
   -0.0796    1.4366   -0.2019 C   0  0  0  0  0  0  0  0  0  0  0  0
   -1.5010    3.0367   -0.0943 N   0  0  0  0  0  0  0  0  0  0  0  0
   -0.1738    2.7664   -0.1162 N   0  0  0  0  0  0  0  0  0  0  0  0
    1.2141    0.7750   -0.1610 C   0  0  0  0  0  0  0  0  0  0  0  0
   -1.9734    4.3679    0.0777 C   0  0  0  0  0  0  0  0  0  0  0  0
    1.8368    0.5492    1.0704 C   0  0  0  0  0  0  0  0  0  0  0  0
    1.8217    0.3256   -1.3380 C   0  0  0  0  0  0  0  0  0  0  0  0
   -3.3477    4.6417    0.1776 C   0  0  0  0  0  0  0  0  0  0  0  0
   -1.0478    5.4216    0.1694 C   0  0  0  0  0  0  0  0  0  0  0  0
    3.0496   -0.1400    1.1185 C   0  0  0  0  0  0  0  0  0  0  0  0
    3.0436   -0.3566   -1.2832 C   0  0  0  0  0  0  0  0  0  0  0  0
   -3.7936    5.9562    0.3538 C   0  0  0  0  0  0  0  0  0  0  0  0
   -1.5072    6.7343    0.3520 C   0  0  0  0  0  0  0  0  0  0  0  0
    3.6596   -0.5948   -0.0538 C   0  0  0  0  0  0  0  0  0  0  0  0
   -2.8780    7.0069    0.4366 C   0  0  0  0  0  0  0  0  0  0  0  0
   -0.5407    7.8356    0.4673 N   0  0  0  0  0  0  0  0  0  0  0  0
    4.8353   -1.2629    0.1424 O   0  0  0  0  0  0  0  0  0  0  0  0
    0.6648    7.5534    0.4237 O   0  0  0  0  0  0  0  0  0  0  0  0
   -0.9888    8.9834    0.6107 O   0  0  0  0  0  0  0  0  0  0  0  0
    5.6294   -1.5389   -1.0071 C   0  0  0  0  0  0  0  0  0  0  0  0
    6.9114   -2.1894   -0.5453 C   0  0  0  0  0  0  0  0  0  0  0  0
    8.1258   -1.4885   -0.5829 C   0  0  0  0  0  0  0  0  0  0  0  0
    6.8976   -3.5034   -0.0517 C   0  0  0  0  0  0  0  0  0  0  0  0
    9.3063   -2.0970   -0.1496 C   0  0  0  0  0  0  0  0  0  0  0  0
    8.0783   -4.1104    0.3811 C   0  0  0  0  0  0  0  0  0  0  0  0
    9.2786   -3.4052    0.3281 C   0  0  0  0  0  0  0  0  0  0  0  0
   10.7332   -4.1533    0.8601 Cl  0  0  0  0  0  0  0  0  0  0  0  0
   -4.0448   -0.4576   -1.2600 H   0  0  0  0  0  0  0  0  0  0  0  0
   -3.0723   -0.3191    1.1103 H   0  0  0  0  0  0  0  0  0  0  0  0
   -2.7178   -1.8803    0.9595 H   0  0  0  0  0  0  0  0  0  0  0  0
   -0.8233   -1.2097    0.0735 H   0  0  0  0  0  0  0  0  0  0  0  0
   -1.7602   -0.9617   -1.4043 H   0  0  0  0  0  0  0  0  0  0  0  0
   -5.5848   -2.4646   -1.2001 H   0  0  0  0  0  0  0  0  0  0  0  0
   -3.9165   -2.7588   -1.6378 H   0  0  0  0  0  0  0  0  0  0  0  0
   -3.4223   -3.7731    0.5186 H   0  0  0  0  0  0  0  0  0  0  0  0
   -4.8130   -5.7677    0.3181 H   0  0  0  0  0  0  0  0  0  0  0  0
   -4.4288   -5.1513   -1.2970 H   0  0  0  0  0  0  0  0  0  0  0  0
   -6.0391   -4.8798   -0.6033 H   0  0  0  0  0  0  0  0  0  0  0  0
   -4.8295   -2.4965    2.0847 H   0  0  0  0  0  0  0  0  0  0  0  0
   -6.3104   -3.1031    1.3134 H   0  0  0  0  0  0  0  0  0  0  0  0
   -5.2398   -4.1994    2.2031 H   0  0  0  0  0  0  0  0  0  0  0  0
   -3.3193    1.9099   -0.2735 H   0  0  0  0  0  0  0  0  0  0  0  0
    1.3879    0.9090    1.9941 H   0  0  0  0  0  0  0  0  0  0  0  0
    1.3602    0.5163   -2.3042 H   0  0  0  0  0  0  0  0  0  0  0  0
   -4.1006    3.8576    0.1369 H   0  0  0  0  0  0  0  0  0  0  0  0
    0.0217    5.2201    0.1042 H   0  0  0  0  0  0  0  0  0  0  0  0
    3.5322   -0.3127    2.0783 H   0  0  0  0  0  0  0  0  0  0  0  0
    3.4839   -0.6877   -2.2188 H   0  0  0  0  0  0  0  0  0  0  0  0
   -4.8616    6.1586    0.4362 H   0  0  0  0  0  0  0  0  0  0  0  0
   -3.2478    8.0204    0.5800 H   0  0  0  0  0  0  0  0  0  0  0  0
    5.8538   -0.6124   -1.5482 H   0  0  0  0  0  0  0  0  0  0  0  0
    5.1097   -2.2281   -1.6823 H   0  0  0  0  0  0  0  0  0  0  0  0
    8.1612   -0.4630   -0.9448 H   0  0  0  0  0  0  0  0  0  0  0  0
    5.9617   -4.0559    0.0056 H   0  0  0  0  0  0  0  0  0  0  0  0
   10.2408   -1.5431   -0.1838 H   0  0  0  0  0  0  0  0  0  0  0  0
    8.0551   -5.1275    0.7622 H   0  0  0  0  0  0  0  0  0  0  0  0
  1  2  1  0
  2  3  1  0
  1  4  1  0
  5  1  1  0
  4  6  2  0
  4  7  1  0
  8  5  1  0
  9  8  1  0
  8 10  1  0
  3 11  1  0
 11 12  2  0
 13 11  1  0
 12 14  1  0
 15 13  2  0
 13 16  1  0
 14 17  1  0
 14 15  1  0
 16 18  2  0
 19 16  1  0
 17 20  2  0
 21 17  1  0
 18 22  1  0
 23 19  2  0
 20 24  1  0
 25 21  2  0
 22 26  2  0
 26 23  1  0
 24 27  2  0
 27 25  1  0
 25 28  1  0
 26 29  1  0
 28 30  1  0
 28 31  2  0
 29 32  1  0
 32 33  1  0
 33 34  2  0
 35 33  1  0
 34 36  1  0
 37 35  2  0
 36 38  2  0
 38 37  1  0
 38 39  1  0
  1 40  1  6
  2 41  1  0
  2 42  1  0
  3 43  1  0
  3 44  1  0
  5 45  1  0
  5 46  1  0
  8 47  1  0
  9 48  1  0
  9 49  1  0
  9 50  1  0
 10 51  1  0
 10 52  1  0
 10 53  1  0
 12 54  1  0
 18 55  1  0
 19 56  1  0
 20 57  1  0
 21 58  1  0
 22 59  1  0
 23 60  1  0
 24 61  1  0
 27 62  1  0
 32 63  1  0
 32 64  1  0
 34 65  1  0
 35 66  1  0
 36 67  1  0
 37 68  1  0
M  CHG  4   2   1   7  -1  28   1  30  -1
M  END
>  <SMILES_raw>  (18) 
CC(C)C[C@@H](C(O)=O)NCC1=CN(C2=CC=CC([N+]([O-])=O)=C2)N=C1C3=CC=C(OCC4=CC=C(Cl)C=C4)C=C3

>  <Protonation_Method>  (18) 
MolScrub

>  <Target_pH>  (18) 
7.4

$$$$
N-((3-(3-((3-chlorobenzyl)oxy)phenyl)-1-(3-nitrophenyl)-1H-pyrazol-4-yl)methyl)-L-alanin
     RDKit          3D

 59 62  0  0  0  0  0  0  0  0999 V2000
   -1.7627   -3.9970   -0.1255 C   0  0  2  0  0  0  0  0  0  0  0  0
   -1.8674   -2.4766   -0.0300 N   0  0  0  0  0  0  0  0  0  0  0  0
   -2.4179   -1.8482   -1.2531 C   0  0  0  0  0  0  0  0  0  0  0  0
   -3.1612   -4.6480    0.0758 C   0  0  0  0  0  0  0  0  0  0  0  0
   -0.8628   -4.4721    1.0036 C   0  0  0  0  0  0  0  0  0  0  0  0
   -3.3270   -5.7885   -0.4197 O   0  0  0  0  0  0  0  0  0  0  0  0
   -3.9487   -3.8350    0.6623 O   0  0  0  0  0  0  0  0  0  0  0  0
   -2.2649   -0.3709   -1.2107 C   0  0  0  0  0  0  0  0  0  0  0  0
   -3.2408    0.5847   -1.0010 C   0  0  0  0  0  0  0  0  0  0  0  0
   -1.0653    0.3793   -1.3476 C   0  0  0  0  0  0  0  0  0  0  0  0
   -2.6262    1.8179   -1.0294 N   0  0  0  0  0  0  0  0  0  0  0  0
   -1.2907    1.6881   -1.2112 N   0  0  0  0  0  0  0  0  0  0  0  0
    0.2834   -0.1372   -1.5371 C   0  0  0  0  0  0  0  0  0  0  0  0
   -3.2184    3.1056   -0.8896 C   0  0  0  0  0  0  0  0  0  0  0  0
    0.6141   -0.8709   -2.6799 C   0  0  0  0  0  0  0  0  0  0  0  0
    1.2461    0.0567   -0.5409 C   0  0  0  0  0  0  0  0  0  0  0  0
   -2.4005    4.2503   -0.9608 C   0  0  0  0  0  0  0  0  0  0  0  0
   -4.5953    3.2567   -0.6824 C   0  0  0  0  0  0  0  0  0  0  0  0
    1.8902   -1.4203   -2.8087 C   0  0  0  0  0  0  0  0  0  0  0  0
    2.5231   -0.4989   -0.6629 C   0  0  0  0  0  0  0  0  0  0  0  0
   -2.9518    5.5302   -0.8426 C   0  0  0  0  0  0  0  0  0  0  0  0
   -5.1358    4.5493   -0.5631 C   0  0  0  0  0  0  0  0  0  0  0  0
    2.8414   -1.2398   -1.8003 C   0  0  0  0  0  0  0  0  0  0  0  0
    3.3488   -0.2555    0.3983 O   0  0  0  0  0  0  0  0  0  0  0  0
   -4.3212    5.6864   -0.6432 C   0  0  0  0  0  0  0  0  0  0  0  0
   -6.5799    4.7107   -0.3576 N   0  0  0  0  0  0  0  0  0  0  0  0
    4.6740   -0.7772    0.3352 C   0  0  0  0  0  0  0  0  0  0  0  0
   -7.2234    3.7084   -0.0175 O   0  0  0  0  0  0  0  0  0  0  0  0
   -7.0670    5.8343   -0.5437 O   0  0  0  0  0  0  0  0  0  0  0  0
    5.3734   -0.4158    1.6212 C   0  0  0  0  0  0  0  0  0  0  0  0
    5.6008   -1.3850    2.6096 C   0  0  0  0  0  0  0  0  0  0  0  0
    5.7756    0.9069    1.8617 C   0  0  0  0  0  0  0  0  0  0  0  0
    6.2295   -1.0431    3.8098 C   0  0  0  0  0  0  0  0  0  0  0  0
    6.4021    1.2428    3.0629 C   0  0  0  0  0  0  0  0  0  0  0  0
    6.6325    0.2726    4.0371 C   0  0  0  0  0  0  0  0  0  0  0  0
    6.8909    2.8696    3.3450 Cl  0  0  0  0  0  0  0  0  0  0  0  0
   -1.3264   -4.2404   -1.1004 H   0  0  0  0  0  0  0  0  0  0  0  0
   -2.6174   -2.3792    0.6866 H   0  0  0  0  0  0  0  0  0  0  0  0
   -1.0131   -2.0385    0.3144 H   0  0  0  0  0  0  0  0  0  0  0  0
   -1.8821   -2.2623   -2.1136 H   0  0  0  0  0  0  0  0  0  0  0  0
   -3.4716   -2.1361   -1.3389 H   0  0  0  0  0  0  0  0  0  0  0  0
   -1.2949   -4.2385    1.9854 H   0  0  0  0  0  0  0  0  0  0  0  0
   -0.7214   -5.5579    0.9549 H   0  0  0  0  0  0  0  0  0  0  0  0
    0.1243   -4.0019    0.9439 H   0  0  0  0  0  0  0  0  0  0  0  0
   -4.3035    0.4753   -0.8399 H   0  0  0  0  0  0  0  0  0  0  0  0
   -0.1061   -1.0078   -3.4826 H   0  0  0  0  0  0  0  0  0  0  0  0
    1.0067    0.6488    0.3410 H   0  0  0  0  0  0  0  0  0  0  0  0
   -1.3275    4.1631   -1.1258 H   0  0  0  0  0  0  0  0  0  0  0  0
   -5.2573    2.3977   -0.6158 H   0  0  0  0  0  0  0  0  0  0  0  0
    2.1474   -1.9876   -3.6987 H   0  0  0  0  0  0  0  0  0  0  0  0
   -2.3062    6.4039   -0.9074 H   0  0  0  0  0  0  0  0  0  0  0  0
    3.8220   -1.6844   -1.9412 H   0  0  0  0  0  0  0  0  0  0  0  0
   -4.7357    6.6895   -0.5549 H   0  0  0  0  0  0  0  0  0  0  0  0
    5.2234   -0.3420   -0.5072 H   0  0  0  0  0  0  0  0  0  0  0  0
    4.6513   -1.8668    0.2238 H   0  0  0  0  0  0  0  0  0  0  0  0
    5.2820   -2.4144    2.4542 H   0  0  0  0  0  0  0  0  0  0  0  0
    5.5897    1.6769    1.1145 H   0  0  0  0  0  0  0  0  0  0  0  0
    6.4013   -1.8027    4.5705 H   0  0  0  0  0  0  0  0  0  0  0  0
    7.1178    0.5346    4.9736 H   0  0  0  0  0  0  0  0  0  0  0  0
  1  2  1  0
  2  3  1  0
  1  4  1  0
  5  1  1  0
  4  6  2  0
  4  7  1  0
  3  8  1  0
  8  9  2  0
 10  8  1  0
  9 11  1  0
 12 10  2  0
 10 13  1  0
 11 14  1  0
 11 12  1  0
 13 15  2  0
 16 13  1  0
 14 17  2  0
 18 14  1  0
 15 19  1  0
 20 16  2  0
 17 21  1  0
 22 18  2  0
 19 23  2  0
 23 20  1  0
 20 24  1  0
 21 25  2  0
 25 22  1  0
 22 26  1  0
 24 27  1  0
 26 28  1  0
 26 29  2  0
 27 30  1  0
 30 31  2  0
 32 30  1  0
 31 33  1  0
 34 32  2  0
 33 35  2  0
 35 34  1  0
 34 36  1  0
  1 37  1  6
  2 38  1  0
  2 39  1  0
  3 40  1  0
  3 41  1  0
  5 42  1  0
  5 43  1  0
  5 44  1  0
  9 45  1  0
 15 46  1  0
 16 47  1  0
 17 48  1  0
 18 49  1  0
 19 50  1  0
 21 51  1  0
 23 52  1  0
 25 53  1  0
 27 54  1  0
 27 55  1  0
 31 56  1  0
 32 57  1  0
 33 58  1  0
 35 59  1  0
M  CHG  4   2   1   7  -1  26   1  28  -1
M  END
>  <SMILES_raw>  (19) 
C[C@@H](C(O)=O)NCC1=CN(C2=CC=CC([N+]([O-])=O)=C2)N=C1C3=CC=CC(OCC4=CC=CC(Cl)=C4)=C3

>  <Protonation_Method>  (19) 
MolScrub

>  <Target_pH>  (19) 
7.4

$$$$
N-((3-(3-((3-chlorobenzyl)oxy)phenyl)-1-(3-nitrophenyl)-1H-pyrazol-4-yl)methyl)-L-aspartic acid
     RDKit          3D

 61 64  0  0  0  0  0  0  0  0999 V2000
   -1.6253    2.6276    0.2134 C   0  0  2  0  0  0  0  0  0  0  0  0
   -1.2470    1.8997    1.4973 N   0  0  0  0  0  0  0  0  0  0  0  0
   -0.4061    0.7022    1.4013 C   0  0  0  0  0  0  0  0  0  0  0  0
   -0.4592    3.0133   -0.7501 C   0  0  0  0  0  0  0  0  0  0  0  0
   -2.4550    3.8577    0.5811 C   0  0  0  0  0  0  0  0  0  0  0  0
   -0.8001    3.2311   -1.9445 O   0  0  0  0  0  0  0  0  0  0  0  0
    0.6949    2.9353   -0.2368 O   0  0  0  0  0  0  0  0  0  0  0  0
   -1.8115    4.7327    1.6507 C   0  0  0  0  0  0  0  0  0  0  0  0
   -2.1359    5.9470    1.6384 O   0  0  0  0  0  0  0  0  0  0  0  0
   -1.0988    4.0915    2.4871 O   0  0  0  0  0  0  0  0  0  0  0  0
   -1.0784   -0.4808    0.7921 C   0  0  0  0  0  0  0  0  0  0  0  0
   -2.4029   -0.8710    0.8873 C   0  0  0  0  0  0  0  0  0  0  0  0
   -0.4699   -1.5064    0.0133 C   0  0  0  0  0  0  0  0  0  0  0  0
   -2.5372   -2.0458    0.1793 N   0  0  0  0  0  0  0  0  0  0  0  0
   -1.3441   -2.4751   -0.2872 N   0  0  0  0  0  0  0  0  0  0  0  0
    0.9188   -1.6075   -0.4130 C   0  0  0  0  0  0  0  0  0  0  0  0
   -3.7193   -2.8068   -0.0622 C   0  0  0  0  0  0  0  0  0  0  0  0
    1.7003   -2.6963   -0.0146 C   0  0  0  0  0  0  0  0  0  0  0  0
    1.4831   -0.6165   -1.2233 C   0  0  0  0  0  0  0  0  0  0  0  0
   -3.6272   -4.0095   -0.7891 C   0  0  0  0  0  0  0  0  0  0  0  0
   -4.9708   -2.3826    0.4066 C   0  0  0  0  0  0  0  0  0  0  0  0
    3.0386   -2.7732   -0.4002 C   0  0  0  0  0  0  0  0  0  0  0  0
    2.8231   -0.6884   -1.6064 C   0  0  0  0  0  0  0  0  0  0  0  0
   -4.7643   -4.7795   -1.0477 C   0  0  0  0  0  0  0  0  0  0  0  0
   -6.1069   -3.1649    0.1403 C   0  0  0  0  0  0  0  0  0  0  0  0
    3.5993   -1.7685   -1.1942 C   0  0  0  0  0  0  0  0  0  0  0  0
    3.2382    0.3425   -2.3993 O   0  0  0  0  0  0  0  0  0  0  0  0
   -6.0087   -4.3575   -0.5908 C   0  0  0  0  0  0  0  0  0  0  0  0
   -7.4176   -2.7374    0.6466 N   0  0  0  0  0  0  0  0  0  0  0  0
    4.6310    0.6659   -2.4168 C   0  0  0  0  0  0  0  0  0  0  0  0
   -8.4085   -3.4113    0.3299 O   0  0  0  0  0  0  0  0  0  0  0  0
   -7.4537   -1.7355    1.3751 O   0  0  0  0  0  0  0  0  0  0  0  0
    5.1231    1.2790   -1.1233 C   0  0  0  0  0  0  0  0  0  0  0  0
    4.3979    2.3026   -0.4867 C   0  0  0  0  0  0  0  0  0  0  0  0
    6.3367    0.8577   -0.5604 C   0  0  0  0  0  0  0  0  0  0  0  0
    4.8749    2.8908    0.6860 C   0  0  0  0  0  0  0  0  0  0  0  0
    6.8050    1.4447    0.6152 C   0  0  0  0  0  0  0  0  0  0  0  0
    6.0832    2.4648    1.2375 C   0  0  0  0  0  0  0  0  0  0  0  0
    8.2912    0.9014    1.2982 Cl  0  0  0  0  0  0  0  0  0  0  0  0
   -2.2681    1.9277   -0.3300 H   0  0  0  0  0  0  0  0  0  0  0  0
   -2.0425    1.8217    2.1253 H   0  0  0  0  0  0  0  0  0  0  0  0
   -0.6880    2.6573    1.9760 H   0  0  0  0  0  0  0  0  0  0  0  0
   -0.1473    0.4454    2.4342 H   0  0  0  0  0  0  0  0  0  0  0  0
    0.5308    0.9504    0.9080 H   0  0  0  0  0  0  0  0  0  0  0  0
   -3.4269    3.5365    0.9768 H   0  0  0  0  0  0  0  0  0  0  0  0
   -2.6585    4.4631   -0.3113 H   0  0  0  0  0  0  0  0  0  0  0  0
   -3.2373   -0.3993    1.3848 H   0  0  0  0  0  0  0  0  0  0  0  0
    1.2687   -3.4845    0.5964 H   0  0  0  0  0  0  0  0  0  0  0  0
    0.8954    0.2365   -1.5599 H   0  0  0  0  0  0  0  0  0  0  0  0
   -2.6650   -4.3664   -1.1532 H   0  0  0  0  0  0  0  0  0  0  0  0
   -5.0810   -1.4595    0.9700 H   0  0  0  0  0  0  0  0  0  0  0  0
    3.6456   -3.6172   -0.0850 H   0  0  0  0  0  0  0  0  0  0  0  0
   -4.6703   -5.7052   -1.6163 H   0  0  0  0  0  0  0  0  0  0  0  0
    4.6387   -1.8649   -1.4852 H   0  0  0  0  0  0  0  0  0  0  0  0
   -6.8866   -4.9629   -0.7992 H   0  0  0  0  0  0  0  0  0  0  0  0
    5.2292   -0.2022   -2.7253 H   0  0  0  0  0  0  0  0  0  0  0  0
    4.7730    1.4130   -3.2074 H   0  0  0  0  0  0  0  0  0  0  0  0
    3.4458    2.6527   -0.8959 H   0  0  0  0  0  0  0  0  0  0  0  0
    6.9144    0.0722   -1.0406 H   0  0  0  0  0  0  0  0  0  0  0  0
    4.2913    3.6808    1.1601 H   0  0  0  0  0  0  0  0  0  0  0  0
    6.4478    2.9318    2.1475 H   0  0  0  0  0  0  0  0  0  0  0  0
  1  2  1  0
  2  3  1  0
  1  4  1  0
  5  1  1  0
  4  6  2  0
  4  7  1  0
  5  8  1  0
  8  9  2  0
  8 10  1  0
  3 11  1  0
 11 12  2  0
 13 11  1  0
 12 14  1  0
 15 13  2  0
 13 16  1  0
 14 17  1  0
 14 15  1  0
 16 18  2  0
 19 16  1  0
 17 20  2  0
 21 17  1  0
 18 22  1  0
 23 19  2  0
 20 24  1  0
 25 21  2  0
 22 26  2  0
 26 23  1  0
 23 27  1  0
 24 28  2  0
 28 25  1  0
 25 29  1  0
 27 30  1  0
 29 31  1  0
 29 32  2  0
 30 33  1  0
 33 34  2  0
 35 33  1  0
 34 36  1  0
 37 35  2  0
 36 38  2  0
 38 37  1  0
 37 39  1  0
  1 40  1  6
  2 41  1  0
  2 42  1  0
  3 43  1  0
  3 44  1  0
  5 45  1  0
  5 46  1  0
 12 47  1  0
 18 48  1  0
 19 49  1  0
 20 50  1  0
 21 51  1  0
 22 52  1  0
 24 53  1  0
 26 54  1  0
 28 55  1  0
 30 56  1  0
 30 57  1  0
 34 58  1  0
 35 59  1  0
 36 60  1  0
 38 61  1  0
M  CHG  5   2   1   7  -1  10  -1  29   1  31  -1
M  END
>  <SMILES_raw>  (20) 
O=C(O)C[C@@H](C(O)=O)NCC1=CN(C2=CC=CC([N+]([O-])=O)=C2)N=C1C3=CC=CC(OCC4=CC=CC(Cl)=C4)=C3

>  <Protonation_Method>  (20) 
MolScrub

>  <Target_pH>  (20) 
7.4

$$$$
N-((3-(3-((3-chlorobenzyl)oxy)phenyl)-1-(3-nitrophenyl)-1H-pyrazol-4-yl)methyl)-L-phenylalanin
     RDKit          3D

 69 73  0  0  0  0  0  0  0  0999 V2000
   -4.1246   -0.9516   -0.5950 C   0  0  2  0  0  0  0  0  0  0  0  0
   -2.6788   -0.4059   -0.6122 N   0  0  0  0  0  0  0  0  0  0  0  0
   -2.0130   -0.2737    0.7081 C   0  0  0  0  0  0  0  0  0  0  0  0
   -5.0513    0.1823   -0.0463 C   0  0  0  0  0  0  0  0  0  0  0  0
   -4.1923   -2.3094    0.1066 C   0  0  0  0  0  0  0  0  0  0  0  0
   -6.0795   -0.1384    0.5831 O   0  0  0  0  0  0  0  0  0  0  0  0
   -4.5037    1.3153   -0.2702 O   0  0  0  0  0  0  0  0  0  0  0  0
   -5.0499   -3.3022   -0.6456 C   0  0  0  0  0  0  0  0  0  0  0  0
   -6.4460   -3.2554   -0.5395 C   0  0  0  0  0  0  0  0  0  0  0  0
   -4.4640   -4.2681   -1.4765 C   0  0  0  0  0  0  0  0  0  0  0  0
   -7.2405   -4.1567   -1.2490 C   0  0  0  0  0  0  0  0  0  0  0  0
   -5.2616   -5.1695   -2.1843 C   0  0  0  0  0  0  0  0  0  0  0  0
   -6.6492   -5.1137   -2.0707 C   0  0  0  0  0  0  0  0  0  0  0  0
   -0.8843    0.6894    0.6407 C   0  0  0  0  0  0  0  0  0  0  0  0
   -0.9705    2.0470    0.3856 C   0  0  0  0  0  0  0  0  0  0  0  0
    0.5069    0.4519    0.8104 C   0  0  0  0  0  0  0  0  0  0  0  0
    0.3078    2.5528    0.3963 N   0  0  0  0  0  0  0  0  0  0  0  0
    1.2118    1.5711    0.6107 N   0  0  0  0  0  0  0  0  0  0  0  0
    1.1950   -0.7994    1.1168 C   0  0  0  0  0  0  0  0  0  0  0  0
    0.7321    3.8975    0.1987 C   0  0  0  0  0  0  0  0  0  0  0  0
    0.8013   -1.5873    2.2052 C   0  0  0  0  0  0  0  0  0  0  0  0
    2.2825   -1.2038    0.3242 C   0  0  0  0  0  0  0  0  0  0  0  0
    2.1024    4.2034    0.2842 C   0  0  0  0  0  0  0  0  0  0  0  0
   -0.1862    4.9195   -0.0797 C   0  0  0  0  0  0  0  0  0  0  0  0
    1.4660   -2.7819    2.4771 C   0  0  0  0  0  0  0  0  0  0  0  0
    2.9570   -2.3928    0.6007 C   0  0  0  0  0  0  0  0  0  0  0  0
    2.5552    5.5130    0.1021 C   0  0  0  0  0  0  0  0  0  0  0  0
    0.2831    6.2309   -0.2659 C   0  0  0  0  0  0  0  0  0  0  0  0
    2.5343   -3.1817    1.6737 C   0  0  0  0  0  0  0  0  0  0  0  0
    4.0380   -2.8876   -0.0745 O   0  0  0  0  0  0  0  0  0  0  0  0
    1.6474    6.5335   -0.1731 C   0  0  0  0  0  0  0  0  0  0  0  0
   -0.6698    7.3033   -0.5718 N   0  0  0  0  0  0  0  0  0  0  0  0
    4.5907   -2.1245   -1.1514 C   0  0  0  0  0  0  0  0  0  0  0  0
   -1.7934    6.9712   -0.9742 O   0  0  0  0  0  0  0  0  0  0  0  0
   -0.2899    8.4726   -0.4176 O   0  0  0  0  0  0  0  0  0  0  0  0
    5.4325   -0.9519   -0.6977 C   0  0  0  0  0  0  0  0  0  0  0  0
    5.4962    0.2105   -1.4816 C   0  0  0  0  0  0  0  0  0  0  0  0
    6.1968   -1.0177    0.4774 C   0  0  0  0  0  0  0  0  0  0  0  0
    6.2833    1.2939   -1.0848 C   0  0  0  0  0  0  0  0  0  0  0  0
    6.9781    0.0685    0.8704 C   0  0  0  0  0  0  0  0  0  0  0  0
    7.0227    1.2245    0.0950 C   0  0  0  0  0  0  0  0  0  0  0  0
    7.8971   -0.0209    2.3224 Cl  0  0  0  0  0  0  0  0  0  0  0  0
   -4.3665   -1.0505   -1.6607 H   0  0  0  0  0  0  0  0  0  0  0  0
   -2.9048    0.5819   -0.8705 H   0  0  0  0  0  0  0  0  0  0  0  0
   -2.0988   -0.8003   -1.3517 H   0  0  0  0  0  0  0  0  0  0  0  0
   -2.7511    0.0646    1.4427 H   0  0  0  0  0  0  0  0  0  0  0  0
   -1.6801   -1.2748    0.9878 H   0  0  0  0  0  0  0  0  0  0  0  0
   -4.5730   -2.2125    1.1310 H   0  0  0  0  0  0  0  0  0  0  0  0
   -3.1936   -2.7530    0.2039 H   0  0  0  0  0  0  0  0  0  0  0  0
   -6.9290   -2.5128    0.0967 H   0  0  0  0  0  0  0  0  0  0  0  0
   -3.3838   -4.3340   -1.5777 H   0  0  0  0  0  0  0  0  0  0  0  0
   -8.3231   -4.1076   -1.1575 H   0  0  0  0  0  0  0  0  0  0  0  0
   -4.8018   -5.9191   -2.8236 H   0  0  0  0  0  0  0  0  0  0  0  0
   -7.2708   -5.8153   -2.6203 H   0  0  0  0  0  0  0  0  0  0  0  0
   -1.8392    2.6704    0.2159 H   0  0  0  0  0  0  0  0  0  0  0  0
    0.0006   -1.2694    2.8685 H   0  0  0  0  0  0  0  0  0  0  0  0
    2.5902   -0.5554   -0.4902 H   0  0  0  0  0  0  0  0  0  0  0  0
    2.8361    3.4269    0.5027 H   0  0  0  0  0  0  0  0  0  0  0  0
   -1.2525    4.7216   -0.1568 H   0  0  0  0  0  0  0  0  0  0  0  0
    1.1700   -3.3937    3.3258 H   0  0  0  0  0  0  0  0  0  0  0  0
    3.6182    5.7319    0.1727 H   0  0  0  0  0  0  0  0  0  0  0  0
    3.0595   -4.1073    1.9002 H   0  0  0  0  0  0  0  0  0  0  0  0
    2.0131    7.5483   -0.3162 H   0  0  0  0  0  0  0  0  0  0  0  0
    3.8033   -1.8244   -1.8539 H   0  0  0  0  0  0  0  0  0  0  0  0
    5.2494   -2.8027   -1.7072 H   0  0  0  0  0  0  0  0  0  0  0  0
    4.9292    0.2826   -2.4076 H   0  0  0  0  0  0  0  0  0  0  0  0
    6.1747   -1.9149    1.0923 H   0  0  0  0  0  0  0  0  0  0  0  0
    6.3211    2.1920   -1.6962 H   0  0  0  0  0  0  0  0  0  0  0  0
    7.6330    2.0696    0.4013 H   0  0  0  0  0  0  0  0  0  0  0  0
  1  2  1  0
  2  3  1  0
  1  4  1  0
  1  5  1  0
  4  6  2  0
  4  7  1  0
  5  8  1  0
  8  9  2  0
 10  8  1  0
  9 11  1  0
 12 10  2  0
 11 13  2  0
 13 12  1  0
  3 14  1  0
 14 15  2  0
 16 14  1  0
 15 17  1  0
 18 16  2  0
 16 19  1  0
 17 20  1  0
 17 18  1  0
 19 21  2  0
 22 19  1  0
 20 23  2  0
 24 20  1  0
 21 25  1  0
 26 22  2  0
 23 27  1  0
 28 24  2  0
 25 29  2  0
 29 26  1  0
 26 30  1  0
 27 31  2  0
 31 28  1  0
 28 32  1  0
 30 33  1  0
 32 34  1  0
 32 35  2  0
 33 36  1  0
 36 37  2  0
 38 36  1  0
 37 39  1  0
 40 38  2  0
 39 41  2  0
 41 40  1  0
 40 42  1  0
  1 43  1  6
  2 44  1  0
  2 45  1  0
  3 46  1  0
  3 47  1  0
  5 48  1  0
  5 49  1  0
  9 50  1  0
 10 51  1  0
 11 52  1  0
 12 53  1  0
 13 54  1  0
 15 55  1  0
 21 56  1  0
 22 57  1  0
 23 58  1  0
 24 59  1  0
 25 60  1  0
 27 61  1  0
 29 62  1  0
 31 63  1  0
 33 64  1  0
 33 65  1  0
 37 66  1  0
 38 67  1  0
 39 68  1  0
 41 69  1  0
M  CHG  4   2   1   7  -1  32   1  34  -1
M  END
>  <SMILES_raw>  (21) 
O=C(O)[C@H](CC1=CC=CC=C1)NCC2=CN(C3=CC=CC([N+]([O-])=O)=C3)N=C2C4=CC=CC(OCC5=CC=CC(Cl)=C5)=C4

>  <Protonation_Method>  (21) 
MolScrub

>  <Target_pH>  (21) 
7.4

$$$$
N-((3-(3-((3-chlorobenzyl)oxy)phenyl)-1-(3-nitrophenyl)-1H-pyrazol-4-yl)methyl)-L-isoleucin
     RDKit          3D

 68 71  0  0  0  0  0  0  0  0999 V2000
   -3.6432   -1.9129   -0.2587 C   0  0  2  0  0  0  0  0  0  0  0  0
   -2.7635   -0.6679   -0.0480 N   0  0  0  0  0  0  0  0  0  0  0  0
   -2.2451   -0.0626   -1.2911 C   0  0  0  0  0  0  0  0  0  0  0  0
   -5.1192   -1.3960   -0.4202 C   0  0  0  0  0  0  0  0  0  0  0  0
   -3.4716   -2.8604    0.9487 C   0  0  2  0  0  0  0  0  0  0  0  0
   -5.9339   -2.1393   -1.0034 O   0  0  0  0  0  0  0  0  0  0  0  0
   -5.1948   -0.1940    0.0076 O   0  0  0  0  0  0  0  0  0  0  0  0
   -2.0081   -3.2891    1.2219 C   0  0  0  0  0  0  0  0  0  0  0  0
   -4.3516   -4.1125    0.8063 C   0  0  0  0  0  0  0  0  0  0  0  0
   -1.2850   -3.9220    0.0413 C   0  0  0  0  0  0  0  0  0  0  0  0
   -1.6253    1.2534   -1.0046 C   0  0  0  0  0  0  0  0  0  0  0  0
   -2.2828    2.4298   -0.6967 C   0  0  0  0  0  0  0  0  0  0  0  0
   -0.2482    1.6039   -0.9903 C   0  0  0  0  0  0  0  0  0  0  0  0
   -1.3274    3.4026   -0.5202 N   0  0  0  0  0  0  0  0  0  0  0  0
   -0.0861    2.9029   -0.7172 N   0  0  0  0  0  0  0  0  0  0  0  0
    0.9077    0.7465   -1.2308 C   0  0  0  0  0  0  0  0  0  0  0  0
   -1.5126    4.7671   -0.1595 C   0  0  0  0  0  0  0  0  0  0  0  0
    1.8720    1.1160   -2.1723 C   0  0  0  0  0  0  0  0  0  0  0  0
    1.0689   -0.4513   -0.5224 C   0  0  0  0  0  0  0  0  0  0  0  0
   -2.7952    5.2953    0.0535 C   0  0  0  0  0  0  0  0  0  0  0  0
   -0.3876    5.5925    0.0029 C   0  0  0  0  0  0  0  0  0  0  0  0
    2.9655    0.2850   -2.4158 C   0  0  0  0  0  0  0  0  0  0  0  0
    2.1607   -1.2907   -0.7657 C   0  0  0  0  0  0  0  0  0  0  0  0
   -2.9529    6.6335    0.4301 C   0  0  0  0  0  0  0  0  0  0  0  0
   -0.5588    6.9310    0.3815 C   0  0  0  0  0  0  0  0  0  0  0  0
    3.1074   -0.9180   -1.7180 C   0  0  0  0  0  0  0  0  0  0  0  0
    2.1752   -2.4237    0.0003 O   0  0  0  0  0  0  0  0  0  0  0  0
   -1.8389    7.4543    0.6001 C   0  0  0  0  0  0  0  0  0  0  0  0
    0.6155    7.7922    0.5596 N   0  0  0  0  0  0  0  0  0  0  0  0
    3.2496   -3.3544   -0.1671 C   0  0  0  0  0  0  0  0  0  0  0  0
    0.4418    8.8990    1.0892 O   0  0  0  0  0  0  0  0  0  0  0  0
    1.7098    7.3634    0.1681 O   0  0  0  0  0  0  0  0  0  0  0  0
    4.5118   -2.9393    0.5536 C   0  0  0  0  0  0  0  0  0  0  0  0
    4.4578   -2.3206    1.8119 C   0  0  0  0  0  0  0  0  0  0  0  0
    5.7667   -3.2115   -0.0126 C   0  0  0  0  0  0  0  0  0  0  0  0
    5.6297   -1.9559    2.4772 C   0  0  0  0  0  0  0  0  0  0  0  0
    6.9341   -2.8430    0.6561 C   0  0  0  0  0  0  0  0  0  0  0  0
    6.8708   -2.2144    1.8968 C   0  0  0  0  0  0  0  0  0  0  0  0
    8.4653   -3.1685   -0.0586 Cl  0  0  0  0  0  0  0  0  0  0  0  0
   -3.3154   -2.3867   -1.1905 H   0  0  0  0  0  0  0  0  0  0  0  0
   -2.0922   -0.7238    0.7134 H   0  0  0  0  0  0  0  0  0  0  0  0
   -3.5137   -0.0061    0.2782 H   0  0  0  0  0  0  0  0  0  0  0  0
   -3.0834    0.0537   -1.9870 H   0  0  0  0  0  0  0  0  0  0  0  0
   -1.5345   -0.7709   -1.7257 H   0  0  0  0  0  0  0  0  0  0  0  0
   -3.8197   -2.3351    1.8493 H   0  0  0  0  0  0  0  0  0  0  0  0
   -1.4213   -2.4330    1.5705 H   0  0  0  0  0  0  0  0  0  0  0  0
   -1.9984   -4.0012    2.0571 H   0  0  0  0  0  0  0  0  0  0  0  0
   -5.4135   -3.8586    0.8857 H   0  0  0  0  0  0  0  0  0  0  0  0
   -4.1408   -4.8354    1.6018 H   0  0  0  0  0  0  0  0  0  0  0  0
   -4.1923   -4.6104   -0.1558 H   0  0  0  0  0  0  0  0  0  0  0  0
   -1.1601   -3.2128   -0.7814 H   0  0  0  0  0  0  0  0  0  0  0  0
   -0.2849   -4.2454    0.3484 H   0  0  0  0  0  0  0  0  0  0  0  0
   -1.8157   -4.8012   -0.3339 H   0  0  0  0  0  0  0  0  0  0  0  0
   -3.3406    2.6325   -0.5968 H   0  0  0  0  0  0  0  0  0  0  0  0
    1.7802    2.0550   -2.7153 H   0  0  0  0  0  0  0  0  0  0  0  0
    0.3608   -0.7365    0.2492 H   0  0  0  0  0  0  0  0  0  0  0  0
   -3.6952    4.6982   -0.0659 H   0  0  0  0  0  0  0  0  0  0  0  0
    0.6145    5.1956   -0.1617 H   0  0  0  0  0  0  0  0  0  0  0  0
    3.7163    0.5796   -3.1458 H   0  0  0  0  0  0  0  0  0  0  0  0
   -3.9512    7.0339    0.6015 H   0  0  0  0  0  0  0  0  0  0  0  0
    3.9797   -1.5243   -1.9363 H   0  0  0  0  0  0  0  0  0  0  0  0
   -1.9834    8.4918    0.8959 H   0  0  0  0  0  0  0  0  0  0  0  0
    3.4210   -3.5656   -1.2293 H   0  0  0  0  0  0  0  0  0  0  0  0
    2.9156   -4.2999    0.2764 H   0  0  0  0  0  0  0  0  0  0  0  0
    3.4966   -2.1112    2.2791 H   0  0  0  0  0  0  0  0  0  0  0  0
    5.8372   -3.7071   -0.9776 H   0  0  0  0  0  0  0  0  0  0  0  0
    5.5745   -1.4681    3.4474 H   0  0  0  0  0  0  0  0  0  0  0  0
    7.7811   -1.9270    2.4156 H   0  0  0  0  0  0  0  0  0  0  0  0
  1  2  1  0
  2  3  1  0
  1  4  1  0
  5  1  1  0
  4  6  2  0
  4  7  1  0
  8  5  1  0
  5  9  1  0
 10  8  1  0
  3 11  1  0
 11 12  2  0
 13 11  1  0
 12 14  1  0
 15 13  2  0
 13 16  1  0
 14 17  1  0
 14 15  1  0
 16 18  2  0
 19 16  1  0
 17 20  2  0
 21 17  1  0
 18 22  1  0
 23 19  2  0
 20 24  1  0
 25 21  2  0
 22 26  2  0
 26 23  1  0
 23 27  1  0
 24 28  2  0
 28 25  1  0
 25 29  1  0
 27 30  1  0
 29 31  1  0
 29 32  2  0
 30 33  1  0
 33 34  2  0
 35 33  1  0
 34 36  1  0
 37 35  2  0
 36 38  2  0
 38 37  1  0
 37 39  1  0
  1 40  1  6
  2 41  1  0
  2 42  1  0
  3 43  1  0
  3 44  1  0
  5 45  1  1
  8 46  1  0
  8 47  1  0
  9 48  1  0
  9 49  1  0
  9 50  1  0
 10 51  1  0
 10 52  1  0
 10 53  1  0
 12 54  1  0
 18 55  1  0
 19 56  1  0
 20 57  1  0
 21 58  1  0
 22 59  1  0
 24 60  1  0
 26 61  1  0
 28 62  1  0
 30 63  1  0
 30 64  1  0
 34 65  1  0
 35 66  1  0
 36 67  1  0
 38 68  1  0
M  CHG  4   2   1   7  -1  29   1  31  -1
M  END
>  <SMILES_raw>  (22) 
CC[C@H](C)[C@@H](C(O)=O)NCC1=CN(C2=CC=CC([N+]([O-])=O)=C2)N=C1C3=CC=CC(OCC4=CC=CC(Cl)=C4)=C3

>  <Protonation_Method>  (22) 
MolScrub

>  <Target_pH>  (22) 
7.4

$$$$
N-((3-(3-((3-chlorobenzyl)oxy)phenyl)-1-(3-nitrophenyl)-1H-pyrazol-4-yl)methyl)-L-leucin
     RDKit          3D

 68 71  0  0  0  0  0  0  0  0999 V2000
   -2.7650   -1.7802    1.2362 C   0  0  2  0  0  0  0  0  0  0  0  0
   -1.3726   -1.7696    0.5718 N   0  0  0  0  0  0  0  0  0  0  0  0
   -0.3894   -0.8536    1.1969 C   0  0  0  0  0  0  0  0  0  0  0  0
   -2.6658   -2.6576    2.5217 C   0  0  0  0  0  0  0  0  0  0  0  0
   -3.7480   -2.3545    0.2078 C   0  0  0  0  0  0  0  0  0  0  0  0
   -1.7049   -3.4877    2.3997 O   0  0  0  0  0  0  0  0  0  0  0  0
   -3.4086   -2.3539    3.4795 O   0  0  0  0  0  0  0  0  0  0  0  0
   -5.2285   -2.2314    0.6349 C   0  0  0  0  0  0  0  0  0  0  0  0
   -5.7457   -3.5190    1.2842 C   0  0  0  0  0  0  0  0  0  0  0  0
   -6.1077   -1.9028   -0.5768 C   0  0  0  0  0  0  0  0  0  0  0  0
   -0.5252    0.5437    0.7122 C   0  0  0  0  0  0  0  0  0  0  0  0
   -1.3917    1.5245    1.1571 C   0  0  0  0  0  0  0  0  0  0  0  0
    0.2398    1.1918   -0.2932 C   0  0  0  0  0  0  0  0  0  0  0  0
   -1.1377    2.6656    0.4295 N   0  0  0  0  0  0  0  0  0  0  0  0
   -0.1495    2.4563   -0.4699 N   0  0  0  0  0  0  0  0  0  0  0  0
    1.3363    0.6329   -1.0648 C   0  0  0  0  0  0  0  0  0  0  0  0
   -1.7650    3.9383    0.5364 C   0  0  0  0  0  0  0  0  0  0  0  0
    1.0821   -0.1700   -2.1793 C   0  0  0  0  0  0  0  0  0  0  0  0
    2.6562    0.8699   -0.6624 C   0  0  0  0  0  0  0  0  0  0  0  0
   -2.7916    4.1679    1.4649 C   0  0  0  0  0  0  0  0  0  0  0  0
   -1.3451    4.9843   -0.3033 C   0  0  0  0  0  0  0  0  0  0  0  0
    2.1476   -0.7454   -2.8706 C   0  0  0  0  0  0  0  0  0  0  0  0
    3.7269    0.2939   -1.3520 C   0  0  0  0  0  0  0  0  0  0  0  0
   -3.3870    5.4311    1.5623 C   0  0  0  0  0  0  0  0  0  0  0  0
   -1.9467    6.2459   -0.1926 C   0  0  0  0  0  0  0  0  0  0  0  0
    3.4654   -0.5196   -2.4548 C   0  0  0  0  0  0  0  0  0  0  0  0
    4.9559    0.5991   -0.8368 O   0  0  0  0  0  0  0  0  0  0  0  0
   -2.9655    6.4760    0.7401 C   0  0  0  0  0  0  0  0  0  0  0  0
   -1.4935    7.3432   -1.0515 N   0  0  0  0  0  0  0  0  0  0  0  0
    6.1243    0.0662   -1.4658 C   0  0  0  0  0  0  0  0  0  0  0  0
   -1.7837    8.4987   -0.7079 O   0  0  0  0  0  0  0  0  0  0  0  0
   -0.8501    7.0490   -2.0683 O   0  0  0  0  0  0  0  0  0  0  0  0
    6.4187   -1.3504   -1.0296 C   0  0  0  0  0  0  0  0  0  0  0  0
    6.3168   -1.7207    0.3205 C   0  0  0  0  0  0  0  0  0  0  0  0
    6.8441   -2.3072   -1.9629 C   0  0  0  0  0  0  0  0  0  0  0  0
    6.6100   -3.0244    0.7265 C   0  0  0  0  0  0  0  0  0  0  0  0
    7.1329   -3.6094   -1.5517 C   0  0  0  0  0  0  0  0  0  0  0  0
    7.0164   -3.9719   -0.2115 C   0  0  0  0  0  0  0  0  0  0  0  0
    7.6394   -4.7757   -2.7113 Cl  0  0  0  0  0  0  0  0  0  0  0  0
   -3.0208   -0.7450    1.4774 H   0  0  0  0  0  0  0  0  0  0  0  0
   -1.0561   -2.7250    0.8634 H   0  0  0  0  0  0  0  0  0  0  0  0
   -1.3869   -1.7356   -0.4460 H   0  0  0  0  0  0  0  0  0  0  0  0
   -0.5005   -0.9109    2.2838 H   0  0  0  0  0  0  0  0  0  0  0  0
    0.5972   -1.2578    0.9499 H   0  0  0  0  0  0  0  0  0  0  0  0
   -3.6048   -1.8090   -0.7346 H   0  0  0  0  0  0  0  0  0  0  0  0
   -3.5052   -3.4042   -0.0037 H   0  0  0  0  0  0  0  0  0  0  0  0
   -5.3368   -1.4091    1.3533 H   0  0  0  0  0  0  0  0  0  0  0  0
   -5.7531   -4.3493    0.5693 H   0  0  0  0  0  0  0  0  0  0  0  0
   -5.1359   -3.8224    2.1371 H   0  0  0  0  0  0  0  0  0  0  0  0
   -6.7708   -3.3787    1.6449 H   0  0  0  0  0  0  0  0  0  0  0  0
   -5.8064   -0.9515   -1.0304 H   0  0  0  0  0  0  0  0  0  0  0  0
   -7.1594   -1.8110   -0.2831 H   0  0  0  0  0  0  0  0  0  0  0  0
   -6.0357   -2.6828   -1.3429 H   0  0  0  0  0  0  0  0  0  0  0  0
   -2.1413    1.4976    1.9349 H   0  0  0  0  0  0  0  0  0  0  0  0
    0.0649   -0.3366   -2.5255 H   0  0  0  0  0  0  0  0  0  0  0  0
    2.8595    1.5097    0.1943 H   0  0  0  0  0  0  0  0  0  0  0  0
   -3.1599    3.3907    2.1274 H   0  0  0  0  0  0  0  0  0  0  0  0
   -0.5500    4.8217   -1.0307 H   0  0  0  0  0  0  0  0  0  0  0  0
    1.9580   -1.3688   -3.7421 H   0  0  0  0  0  0  0  0  0  0  0  0
   -4.1852    5.5978    2.2832 H   0  0  0  0  0  0  0  0  0  0  0  0
    4.2603   -0.9945   -3.0202 H   0  0  0  0  0  0  0  0  0  0  0  0
   -3.4378    7.4522    0.8328 H   0  0  0  0  0  0  0  0  0  0  0  0
    6.9668    0.6901   -1.1457 H   0  0  0  0  0  0  0  0  0  0  0  0
    6.0731    0.1732   -2.5553 H   0  0  0  0  0  0  0  0  0  0  0  0
    6.0055   -0.9897    1.0655 H   0  0  0  0  0  0  0  0  0  0  0  0
    6.9498   -2.0396   -3.0121 H   0  0  0  0  0  0  0  0  0  0  0  0
    6.5237   -3.2988    1.7753 H   0  0  0  0  0  0  0  0  0  0  0  0
    7.2441   -4.9854    0.1085 H   0  0  0  0  0  0  0  0  0  0  0  0
  1  2  1  0
  2  3  1  0
  1  4  1  0
  5  1  1  0
  4  6  2  0
  4  7  1  0
  8  5  1  0
  9  8  1  0
  8 10  1  0
  3 11  1  0
 11 12  2  0
 13 11  1  0
 12 14  1  0
 15 13  2  0
 13 16  1  0
 14 17  1  0
 14 15  1  0
 16 18  2  0
 19 16  1  0
 17 20  2  0
 21 17  1  0
 18 22  1  0
 23 19  2  0
 20 24  1  0
 25 21  2  0
 22 26  2  0
 26 23  1  0
 23 27  1  0
 24 28  2  0
 28 25  1  0
 25 29  1  0
 27 30  1  0
 29 31  1  0
 29 32  2  0
 30 33  1  0
 33 34  2  0
 35 33  1  0
 34 36  1  0
 37 35  2  0
 36 38  2  0
 38 37  1  0
 37 39  1  0
  1 40  1  1
  2 41  1  0
  2 42  1  0
  3 43  1  0
  3 44  1  0
  5 45  1  0
  5 46  1  0
  8 47  1  0
  9 48  1  0
  9 49  1  0
  9 50  1  0
 10 51  1  0
 10 52  1  0
 10 53  1  0
 12 54  1  0
 18 55  1  0
 19 56  1  0
 20 57  1  0
 21 58  1  0
 22 59  1  0
 24 60  1  0
 26 61  1  0
 28 62  1  0
 30 63  1  0
 30 64  1  0
 34 65  1  0
 35 66  1  0
 36 67  1  0
 38 68  1  0
M  CHG  4   2   1   7  -1  29   1  31  -1
M  END
>  <SMILES_raw>  (23) 
CC(C)C[C@@H](C(O)=O)NCC1=CN(C2=CC=CC([N+]([O-])=O)=C2)N=C1C3=CC=CC(OCC4=CC=CC(Cl)=C4)=C3

>  <Protonation_Method>  (23) 
MolScrub

>  <Target_pH>  (23) 
7.4

$$$$
N-((3-(3-((3-chlorobenzyl)oxy)phenyl)-1-(3-nitrophenyl)-1H-pyrazol-4-yl)methyl)-L-methionin
     RDKit          3D

 66 69  0  0  0  0  0  0  0  0999 V2000
   -2.5978    3.0509   -0.3634 C   0  0  2  0  0  0  0  0  0  0  0  0
   -2.0033    1.6373   -0.2152 N   0  0  0  0  0  0  0  0  0  0  0  0
   -1.8396    0.8588   -1.4467 C   0  0  0  0  0  0  0  0  0  0  0  0
   -1.7150    4.0351    0.4663 C   0  0  0  0  0  0  0  0  0  0  0  0
   -4.0603    2.9916    0.0701 C   0  0  0  0  0  0  0  0  0  0  0  0
   -2.1397    5.1952    0.6377 O   0  0  0  0  0  0  0  0  0  0  0  0
   -0.6574    3.4335    0.8476 O   0  0  0  0  0  0  0  0  0  0  0  0
   -4.8585    4.2064   -0.4067 C   0  0  0  0  0  0  0  0  0  0  0  0
   -6.6411    3.9462   -0.1113 S   0  0  0  0  0  0  0  0  0  0  0  0
   -6.7148    4.4264    1.6347 C   0  0  0  0  0  0  0  0  0  0  0  0
   -1.4206   -0.5335   -1.1557 C   0  0  0  0  0  0  0  0  0  0  0  0
   -2.2259   -1.6556   -1.0793 C   0  0  0  0  0  0  0  0  0  0  0  0
   -0.1185   -1.0157   -0.8498 C   0  0  0  0  0  0  0  0  0  0  0  0
   -1.4211   -2.7193   -0.7325 N   0  0  0  0  0  0  0  0  0  0  0  0
   -0.1415   -2.3228   -0.5711 N   0  0  0  0  0  0  0  0  0  0  0  0
    1.1273   -0.2644   -0.7673 C   0  0  0  0  0  0  0  0  0  0  0  0
   -1.7914   -4.0788   -0.5280 C   0  0  0  0  0  0  0  0  0  0  0  0
    1.6090    0.4510   -1.8678 C   0  0  0  0  0  0  0  0  0  0  0  0
    1.8556   -0.2590    0.4290 C   0  0  0  0  0  0  0  0  0  0  0  0
   -0.8154   -5.0022   -0.1131 C   0  0  0  0  0  0  0  0  0  0  0  0
   -3.1072   -4.5154   -0.7350 C   0  0  0  0  0  0  0  0  0  0  0  0
    2.7952    1.1775   -1.7600 C   0  0  0  0  0  0  0  0  0  0  0  0
    3.0379    0.4770    0.5446 C   0  0  0  0  0  0  0  0  0  0  0  0
   -1.1467   -6.3432    0.1021 C   0  0  0  0  0  0  0  0  0  0  0  0
   -3.4276   -5.8670   -0.5186 C   0  0  0  0  0  0  0  0  0  0  0  0
    3.5071    1.1918   -0.5570 C   0  0  0  0  0  0  0  0  0  0  0  0
    3.6438    0.3884    1.7676 O   0  0  0  0  0  0  0  0  0  0  0  0
   -2.4541   -6.7818   -0.0989 C   0  0  0  0  0  0  0  0  0  0  0  0
   -4.8036   -6.3291   -0.7500 N   0  0  0  0  0  0  0  0  0  0  0  0
    4.6787    1.3249    2.0815 C   0  0  0  0  0  0  0  0  0  0  0  0
   -5.0590   -7.5210   -0.5260 O   0  0  0  0  0  0  0  0  0  0  0  0
   -5.6265   -5.4943   -1.1578 O   0  0  0  0  0  0  0  0  0  0  0  0
    6.0514    0.8623    1.6420 C   0  0  0  0  0  0  0  0  0  0  0  0
    7.0490    1.8093    1.3630 C   0  0  0  0  0  0  0  0  0  0  0  0
    6.3726   -0.5022    1.5575 C   0  0  0  0  0  0  0  0  0  0  0  0
    8.3291    1.4029    0.9785 C   0  0  0  0  0  0  0  0  0  0  0  0
    7.6528   -0.9027    1.1739 C   0  0  0  0  0  0  0  0  0  0  0  0
    8.6313    0.0445    0.8806 C   0  0  0  0  0  0  0  0  0  0  0  0
    8.0287   -2.5801    1.0645 Cl  0  0  0  0  0  0  0  0  0  0  0  0
   -2.4945    3.3195   -1.4215 H   0  0  0  0  0  0  0  0  0  0  0  0
   -1.0588    1.8862    0.1851 H   0  0  0  0  0  0  0  0  0  0  0  0
   -2.4445    1.1305    0.5561 H   0  0  0  0  0  0  0  0  0  0  0  0
   -1.1213    1.3848   -2.0822 H   0  0  0  0  0  0  0  0  0  0  0  0
   -2.8093    0.8595   -1.9569 H   0  0  0  0  0  0  0  0  0  0  0  0
   -4.1136    2.9149    1.1633 H   0  0  0  0  0  0  0  0  0  0  0  0
   -4.5167    2.0803   -0.3393 H   0  0  0  0  0  0  0  0  0  0  0  0
   -4.5495    5.1352    0.0786 H   0  0  0  0  0  0  0  0  0  0  0  0
   -4.7277    4.3365   -1.4862 H   0  0  0  0  0  0  0  0  0  0  0  0
   -7.7469    4.3407    1.9848 H   0  0  0  0  0  0  0  0  0  0  0  0
   -6.3926    5.4636    1.7577 H   0  0  0  0  0  0  0  0  0  0  0  0
   -6.0895    3.7703    2.2445 H   0  0  0  0  0  0  0  0  0  0  0  0
   -3.2897   -1.7687   -1.2302 H   0  0  0  0  0  0  0  0  0  0  0  0
    1.0884    0.4324   -2.8214 H   0  0  0  0  0  0  0  0  0  0  0  0
    1.5026   -0.8291    1.2862 H   0  0  0  0  0  0  0  0  0  0  0  0
    0.2168   -4.6911    0.0502 H   0  0  0  0  0  0  0  0  0  0  0  0
   -3.8845   -3.8333   -1.0671 H   0  0  0  0  0  0  0  0  0  0  0  0
    3.1780    1.7272   -2.6169 H   0  0  0  0  0  0  0  0  0  0  0  0
   -0.3784   -7.0435    0.4239 H   0  0  0  0  0  0  0  0  0  0  0  0
    4.4337    1.7554   -0.5223 H   0  0  0  0  0  0  0  0  0  0  0  0
   -2.6946   -7.8298    0.0709 H   0  0  0  0  0  0  0  0  0  0  0  0
    4.4365    2.3244    1.6981 H   0  0  0  0  0  0  0  0  0  0  0  0
    4.6984    1.4132    3.1749 H   0  0  0  0  0  0  0  0  0  0  0  0
    6.8344    2.8740    1.4424 H   0  0  0  0  0  0  0  0  0  0  0  0
    5.6204   -1.2541    1.7861 H   0  0  0  0  0  0  0  0  0  0  0  0
    9.0914    2.1465    0.7592 H   0  0  0  0  0  0  0  0  0  0  0  0
    9.6283   -0.2688    0.5808 H   0  0  0  0  0  0  0  0  0  0  0  0
  1  2  1  0
  2  3  1  0
  1  4  1  0
  5  1  1  0
  4  6  2  0
  4  7  1  0
  8  5  1  0
  9  8  1  0
 10  9  1  0
  3 11  1  0
 11 12  2  0
 13 11  1  0
 12 14  1  0
 15 13  2  0
 13 16  1  0
 14 17  1  0
 14 15  1  0
 16 18  2  0
 19 16  1  0
 17 20  2  0
 21 17  1  0
 18 22  1  0
 23 19  2  0
 20 24  1  0
 25 21  2  0
 22 26  2  0
 26 23  1  0
 23 27  1  0
 24 28  2  0
 28 25  1  0
 25 29  1  0
 27 30  1  0
 29 31  1  0
 29 32  2  0
 30 33  1  0
 33 34  2  0
 35 33  1  0
 34 36  1  0
 37 35  2  0
 36 38  2  0
 38 37  1  0
 37 39  1  0
  1 40  1  6
  2 41  1  0
  2 42  1  0
  3 43  1  0
  3 44  1  0
  5 45  1  0
  5 46  1  0
  8 47  1  0
  8 48  1  0
 10 49  1  0
 10 50  1  0
 10 51  1  0
 12 52  1  0
 18 53  1  0
 19 54  1  0
 20 55  1  0
 21 56  1  0
 22 57  1  0
 24 58  1  0
 26 59  1  0
 28 60  1  0
 30 61  1  0
 30 62  1  0
 34 63  1  0
 35 64  1  0
 36 65  1  0
 38 66  1  0
M  CHG  4   2   1   7  -1  29   1  31  -1
M  END
>  <SMILES_raw>  (24) 
CSCC[C@@H](C(O)=O)NCC1=CN(C2=CC=CC([N+]([O-])=O)=C2)N=C1C3=CC=CC(OCC4=CC=CC(Cl)=C4)=C3

>  <Protonation_Method>  (24) 
MolScrub

>  <Target_pH>  (24) 
7.4

$$$$
N-((3-(3-((3-chlorobenzyl)oxy)phenyl)-1-(3-nitrophenyl)-1H-pyrazol-4-yl)methyl)-L-tryptophan
     RDKit          3D

 73 78  0  0  0  0  0  0  0  0999 V2000
   -2.6006   -1.4983   -2.4028 C   0  0  2  0  0  0  0  0  0  0  0  0
   -1.4823   -0.4632   -2.1389 N   0  0  0  0  0  0  0  0  0  0  0  0
   -0.8977   -0.4469   -0.7957 C   0  0  0  0  0  0  0  0  0  0  0  0
   -2.3818   -2.0661   -3.8375 C   0  0  0  0  0  0  0  0  0  0  0  0
   -3.9694   -0.8486   -2.1741 C   0  0  0  0  0  0  0  0  0  0  0  0
   -3.3327   -2.6324   -4.4145 O   0  0  0  0  0  0  0  0  0  0  0  0
   -1.1856   -1.8051   -4.1953 O   0  0  0  0  0  0  0  0  0  0  0  0
   -4.8466   -1.7015   -1.3055 C   0  0  0  0  0  0  0  0  0  0  0  0
   -5.5531   -2.8124   -1.7290 C   0  0  0  0  0  0  0  0  0  0  0  0
   -5.0883   -1.5662    0.1007 C   0  0  0  0  0  0  0  0  0  0  0  0
   -6.2000   -3.3534   -0.6540 N   0  0  0  0  0  0  0  0  0  0  0  0
   -5.9165   -2.6259    0.4814 C   0  0  0  0  0  0  0  0  0  0  0  0
   -4.6729   -0.6486    1.0905 C   0  0  0  0  0  0  0  0  0  0  0  0
   -6.3312   -2.8277    1.8020 C   0  0  0  0  0  0  0  0  0  0  0  0
   -5.0801   -0.8339    2.4161 C   0  0  0  0  0  0  0  0  0  0  0  0
   -5.8883   -1.9138    2.7662 C   0  0  0  0  0  0  0  0  0  0  0  0
   -0.4178    0.9136   -0.4520 C   0  0  0  0  0  0  0  0  0  0  0  0
   -1.1549    1.9480    0.0959 C   0  0  0  0  0  0  0  0  0  0  0  0
    0.8719    1.4727   -0.6503 C   0  0  0  0  0  0  0  0  0  0  0  0
   -0.3217    3.0385    0.2057 N   0  0  0  0  0  0  0  0  0  0  0  0
    0.9051    2.7590   -0.2834 N   0  0  0  0  0  0  0  0  0  0  0  0
    2.0519    0.8374   -1.2160 C   0  0  0  0  0  0  0  0  0  0  0  0
   -0.6170    4.3271    0.7354 C   0  0  0  0  0  0  0  0  0  0  0  0
    2.4458    1.1518   -2.5242 C   0  0  0  0  0  0  0  0  0  0  0  0
    2.7990   -0.0763   -0.4546 C   0  0  0  0  0  0  0  0  0  0  0  0
   -1.8734    4.6108    1.2943 C   0  0  0  0  0  0  0  0  0  0  0  0
    0.3741    5.3278    0.7125 C   0  0  0  0  0  0  0  0  0  0  0  0
    3.5736    0.5501   -3.0748 C   0  0  0  0  0  0  0  0  0  0  0  0
    3.9336   -0.6748   -1.0062 C   0  0  0  0  0  0  0  0  0  0  0  0
   -2.1465    5.8780    1.8187 C   0  0  0  0  0  0  0  0  0  0  0  0
    0.0874    6.5986    1.2342 C   0  0  0  0  0  0  0  0  0  0  0  0
    4.3114   -0.3600   -2.3165 C   0  0  0  0  0  0  0  0  0  0  0  0
    4.7566   -1.5717   -0.3840 O   0  0  0  0  0  0  0  0  0  0  0  0
   -1.1689    6.8760    1.7920 C   0  0  0  0  0  0  0  0  0  0  0  0
    1.1083    7.6537    1.1865 N   0  0  0  0  0  0  0  0  0  0  0  0
    4.4813   -1.8853    0.9789 C   0  0  0  0  0  0  0  0  0  0  0  0
    0.7517    8.8127    1.4593 O   0  0  0  0  0  0  0  0  0  0  0  0
    2.2629    7.3227    0.8746 O   0  0  0  0  0  0  0  0  0  0  0  0
    5.5486   -2.8374    1.4586 C   0  0  0  0  0  0  0  0  0  0  0  0
    5.5167   -4.1876    1.0756 C   0  0  0  0  0  0  0  0  0  0  0  0
    6.6061   -2.3838    2.2611 C   0  0  0  0  0  0  0  0  0  0  0  0
    6.5093   -5.0718    1.5031 C   0  0  0  0  0  0  0  0  0  0  0  0
    7.5946   -3.2734    2.6851 C   0  0  0  0  0  0  0  0  0  0  0  0
    7.5496   -4.6157    2.3127 C   0  0  0  0  0  0  0  0  0  0  0  0
    8.8744   -2.7067    3.6866 Cl  0  0  0  0  0  0  0  0  0  0  0  0
   -2.4031   -2.3274   -1.7101 H   0  0  0  0  0  0  0  0  0  0  0  0
   -1.7469    0.4545   -2.5120 H   0  0  0  0  0  0  0  0  0  0  0  0
   -0.7726   -0.7992   -2.8453 H   0  0  0  0  0  0  0  0  0  0  0  0
   -0.1023   -1.1976   -0.7691 H   0  0  0  0  0  0  0  0  0  0  0  0
   -1.6743   -0.7484   -0.0859 H   0  0  0  0  0  0  0  0  0  0  0  0
   -4.4806   -0.6477   -3.1240 H   0  0  0  0  0  0  0  0  0  0  0  0
   -3.8545    0.1277   -1.6782 H   0  0  0  0  0  0  0  0  0  0  0  0
   -5.6321   -3.2682   -2.7121 H   0  0  0  0  0  0  0  0  0  0  0  0
   -6.7824   -4.1822   -0.6828 H   0  0  0  0  0  0  0  0  0  0  0  0
   -4.0598    0.2049    0.8318 H   0  0  0  0  0  0  0  0  0  0  0  0
   -6.9640   -3.6651    2.0797 H   0  0  0  0  0  0  0  0  0  0  0  0
   -4.7634   -0.1296    3.1844 H   0  0  0  0  0  0  0  0  0  0  0  0
   -6.1920   -2.0465    3.8021 H   0  0  0  0  0  0  0  0  0  0  0  0
   -2.1885    1.9853    0.4031 H   0  0  0  0  0  0  0  0  0  0  0  0
    1.8908    1.8819   -3.1120 H   0  0  0  0  0  0  0  0  0  0  0  0
    2.4889   -0.2878    0.5659 H   0  0  0  0  0  0  0  0  0  0  0  0
   -2.6681    3.8676    1.3330 H   0  0  0  0  0  0  0  0  0  0  0  0
    1.3577    5.1201    0.2848 H   0  0  0  0  0  0  0  0  0  0  0  0
    3.8916    0.8011   -4.0865 H   0  0  0  0  0  0  0  0  0  0  0  0
   -3.1133    6.0875    2.2695 H   0  0  0  0  0  0  0  0  0  0  0  0
    5.2000   -0.8192   -2.7458 H   0  0  0  0  0  0  0  0  0  0  0  0
   -1.3988    7.8591    2.2049 H   0  0  0  0  0  0  0  0  0  0  0  0
    3.4998   -2.3680    1.0741 H   0  0  0  0  0  0  0  0  0  0  0  0
    4.4941   -0.9756    1.5936 H   0  0  0  0  0  0  0  0  0  0  0  0
    4.7234   -4.5569    0.4267 H   0  0  0  0  0  0  0  0  0  0  0  0
    6.6659   -1.3377    2.5531 H   0  0  0  0  0  0  0  0  0  0  0  0
    6.4759   -6.1154    1.1953 H   0  0  0  0  0  0  0  0  0  0  0  0
    8.3220   -5.3072    2.6401 H   0  0  0  0  0  0  0  0  0  0  0  0
  1  2  1  0
  2  3  1  0
  1  4  1  0
  1  5  1  0
  4  6  2  0
  4  7  1  0
  5  8  1  0
  8  9  2  0
 10  8  1  0
  9 11  1  0
 12 10  2  0
 10 13  1  0
 11 12  1  0
 14 12  1  0
 13 15  2  0
 16 14  2  0
 15 16  1  0
  3 17  1  0
 17 18  2  0
 19 17  1  0
 18 20  1  0
 21 19  2  0
 19 22  1  0
 20 23  1  0
 20 21  1  0
 22 24  2  0
 25 22  1  0
 23 26  2  0
 27 23  1  0
 24 28  1  0
 29 25  2  0
 26 30  1  0
 31 27  2  0
 28 32  2  0
 32 29  1  0
 29 33  1  0
 30 34  2  0
 34 31  1  0
 31 35  1  0
 33 36  1  0
 35 37  1  0
 35 38  2  0
 36 39  1  0
 39 40  2  0
 41 39  1  0
 40 42  1  0
 43 41  2  0
 42 44  2  0
 44 43  1  0
 43 45  1  0
  1 46  1  1
  2 47  1  0
  2 48  1  0
  3 49  1  0
  3 50  1  0
  5 51  1  0
  5 52  1  0
  9 53  1  0
 11 54  1  0
 13 55  1  0
 14 56  1  0
 15 57  1  0
 16 58  1  0
 18 59  1  0
 24 60  1  0
 25 61  1  0
 26 62  1  0
 27 63  1  0
 28 64  1  0
 30 65  1  0
 32 66  1  0
 34 67  1  0
 36 68  1  0
 36 69  1  0
 40 70  1  0
 41 71  1  0
 42 72  1  0
 44 73  1  0
M  CHG  4   2   1   7  -1  35   1  37  -1
M  END
>  <SMILES_raw>  (25) 
O=C(O)[C@H](CC1=CNC2=C1C=CC=C2)NCC3=CN(C4=CC=CC([N+]([O-])=O)=C4)N=C3C5=CC=CC(OCC6=CC=CC(Cl)=C6)=C5

>  <Protonation_Method>  (25) 
MolScrub

>  <Target_pH>  (25) 
7.4

$$$$
N-((3-(3-((3-chlorobenzyl)oxy)phenyl)-1-(3-nitrophenyl)-1H-pyrazol-4-yl)methyl)-L-tyrosin
     RDKit          3D

 70 74  0  0  0  0  0  0  0  0999 V2000
   -2.6841   -1.2836   -1.4092 C   0  0  2  0  0  0  0  0  0  0  0  0
   -1.8046   -0.0695   -1.0510 N   0  0  0  0  0  0  0  0  0  0  0  0
   -1.5142    0.1439    0.3674 C   0  0  0  0  0  0  0  0  0  0  0  0
   -2.0763   -1.9508   -2.6802 C   0  0  0  0  0  0  0  0  0  0  0  0
   -4.1299   -0.8247   -1.6030 C   0  0  0  0  0  0  0  0  0  0  0  0
   -0.9189   -1.4539   -2.8956 O   0  0  0  0  0  0  0  0  0  0  0  0
   -2.7571   -2.8033   -3.2861 O   0  0  0  0  0  0  0  0  0  0  0  0
   -5.0940   -1.6509   -0.7843 C   0  0  0  0  0  0  0  0  0  0  0  0
   -5.5221   -2.9006   -1.2577 C   0  0  0  0  0  0  0  0  0  0  0  0
   -5.5510   -1.1981    0.4621 C   0  0  0  0  0  0  0  0  0  0  0  0
   -6.4028   -3.6815   -0.5069 C   0  0  0  0  0  0  0  0  0  0  0  0
   -6.4264   -1.9820    1.2154 C   0  0  0  0  0  0  0  0  0  0  0  0
   -6.8464   -3.2143    0.7255 C   0  0  0  0  0  0  0  0  0  0  0  0
   -7.7056   -3.9423    1.4934 O   0  0  0  0  0  0  0  0  0  0  0  0
   -0.6666    1.3461    0.5572 C   0  0  0  0  0  0  0  0  0  0  0  0
   -1.0469    2.6698    0.4302 C   0  0  0  0  0  0  0  0  0  0  0  0
    0.7038    1.4085    0.9352 C   0  0  0  0  0  0  0  0  0  0  0  0
    0.0571    3.4452    0.7120 N   0  0  0  0  0  0  0  0  0  0  0  0
    1.1108    2.6766    1.0580 N   0  0  0  0  0  0  0  0  0  0  0  0
    1.6207    0.3082    1.2145 C   0  0  0  0  0  0  0  0  0  0  0  0
    0.1706    4.8650    0.6775 C   0  0  0  0  0  0  0  0  0  0  0  0
    2.3344    0.2838    2.4177 C   0  0  0  0  0  0  0  0  0  0  0  0
    1.7992   -0.7311    0.2931 C   0  0  0  0  0  0  0  0  0  0  0  0
    1.4090    5.4636    0.9639 C   0  0  0  0  0  0  0  0  0  0  0  0
   -0.9261    5.6767    0.3553 C   0  0  0  0  0  0  0  0  0  0  0  0
    3.1944   -0.7765    2.7021 C   0  0  0  0  0  0  0  0  0  0  0  0
    2.6568   -1.8000    0.5757 C   0  0  0  0  0  0  0  0  0  0  0  0
    1.5574    6.8529    0.9225 C   0  0  0  0  0  0  0  0  0  0  0  0
   -0.7669    7.0739    0.3186 C   0  0  0  0  0  0  0  0  0  0  0  0
    3.3511   -1.8187    1.7843 C   0  0  0  0  0  0  0  0  0  0  0  0
    2.7197   -2.7410   -0.4134 O   0  0  0  0  0  0  0  0  0  0  0  0
    0.4714    7.6646    0.5947 C   0  0  0  0  0  0  0  0  0  0  0  0
   -1.9196    7.9253   -0.0066 N   0  0  0  0  0  0  0  0  0  0  0  0
    3.5824   -3.8691   -0.2530 C   0  0  0  0  0  0  0  0  0  0  0  0
   -3.0066    7.3627   -0.2034 O   0  0  0  0  0  0  0  0  0  0  0  0
   -1.7389    9.1496   -0.0587 O   0  0  0  0  0  0  0  0  0  0  0  0
    5.0220   -3.5492   -0.5862 C   0  0  0  0  0  0  0  0  0  0  0  0
    5.3417   -2.8093   -1.7347 C   0  0  0  0  0  0  0  0  0  0  0  0
    6.0628   -4.0178    0.2293 C   0  0  0  0  0  0  0  0  0  0  0  0
    6.6714   -2.5239   -2.0510 C   0  0  0  0  0  0  0  0  0  0  0  0
    7.3902   -3.7274   -0.0914 C   0  0  0  0  0  0  0  0  0  0  0  0
    7.6989   -2.9809   -1.2263 C   0  0  0  0  0  0  0  0  0  0  0  0
    8.6571   -4.2946    0.9278 Cl  0  0  0  0  0  0  0  0  0  0  0  0
   -2.5629   -1.9955   -0.5837 H   0  0  0  0  0  0  0  0  0  0  0  0
   -0.9335   -0.3369   -1.5783 H   0  0  0  0  0  0  0  0  0  0  0  0
   -2.1084    0.7633   -1.5616 H   0  0  0  0  0  0  0  0  0  0  0  0
   -1.0460   -0.7650    0.7568 H   0  0  0  0  0  0  0  0  0  0  0  0
   -2.4750    0.2789    0.8753 H   0  0  0  0  0  0  0  0  0  0  0  0
   -4.2541    0.2261   -1.3073 H   0  0  0  0  0  0  0  0  0  0  0  0
   -4.4331   -0.8619   -2.6576 H   0  0  0  0  0  0  0  0  0  0  0  0
   -5.1702   -3.2745   -2.2208 H   0  0  0  0  0  0  0  0  0  0  0  0
   -5.2374   -0.2338    0.8578 H   0  0  0  0  0  0  0  0  0  0  0  0
   -6.7295   -4.6387   -0.9055 H   0  0  0  0  0  0  0  0  0  0  0  0
   -6.7870   -1.6337    2.1792 H   0  0  0  0  0  0  0  0  0  0  0  0
   -7.8949   -4.7787    1.0333 H   0  0  0  0  0  0  0  0  0  0  0  0
   -1.9999    3.1064    0.1710 H   0  0  0  0  0  0  0  0  0  0  0  0
    2.2272    1.0940    3.1369 H   0  0  0  0  0  0  0  0  0  0  0  0
    1.2974   -0.7176   -0.6718 H   0  0  0  0  0  0  0  0  0  0  0  0
    2.2787    4.8576    1.2218 H   0  0  0  0  0  0  0  0  0  0  0  0
   -1.9003    5.2515    0.1339 H   0  0  0  0  0  0  0  0  0  0  0  0
    3.7505   -0.7903    3.6367 H   0  0  0  0  0  0  0  0  0  0  0  0
    2.5256    7.2984    1.1423 H   0  0  0  0  0  0  0  0  0  0  0  0
    4.0351   -2.6189    2.0428 H   0  0  0  0  0  0  0  0  0  0  0  0
    0.6067    8.7439    0.5664 H   0  0  0  0  0  0  0  0  0  0  0  0
    3.2416   -4.6334   -0.9633 H   0  0  0  0  0  0  0  0  0  0  0  0
    3.4674   -4.3150    0.7425 H   0  0  0  0  0  0  0  0  0  0  0  0
    4.5471   -2.4452   -2.3861 H   0  0  0  0  0  0  0  0  0  0  0  0
    5.8408   -4.6039    1.1180 H   0  0  0  0  0  0  0  0  0  0  0  0
    6.9034   -1.9437   -2.9407 H   0  0  0  0  0  0  0  0  0  0  0  0
    8.7325   -2.7550   -1.4762 H   0  0  0  0  0  0  0  0  0  0  0  0
  1  2  1  0
  2  3  1  0
  1  4  1  0
  5  1  1  0
  4  6  2  0
  4  7  1  0
  8  5  1  0
  9  8  2  0
  8 10  1  0
 11  9  1  0
 10 12  2  0
 13 11  2  0
 12 13  1  0
 14 13  1  0
  3 15  1  0
 15 16  2  0
 17 15  1  0
 16 18  1  0
 19 17  2  0
 17 20  1  0
 18 21  1  0
 18 19  1  0
 20 22  2  0
 23 20  1  0
 21 24  2  0
 25 21  1  0
 22 26  1  0
 27 23  2  0
 24 28  1  0
 29 25  2  0
 26 30  2  0
 30 27  1  0
 27 31  1  0
 28 32  2  0
 32 29  1  0
 29 33  1  0
 31 34  1  0
 33 35  1  0
 33 36  2  0
 34 37  1  0
 37 38  2  0
 39 37  1  0
 38 40  1  0
 41 39  2  0
 40 42  2  0
 42 41  1  0
 41 43  1  0
  1 44  1  1
  2 45  1  0
  2 46  1  0
  3 47  1  0
  3 48  1  0
  5 49  1  0
  5 50  1  0
  9 51  1  0
 10 52  1  0
 11 53  1  0
 12 54  1  0
 14 55  1  0
 16 56  1  0
 22 57  1  0
 23 58  1  0
 24 59  1  0
 25 60  1  0
 26 61  1  0
 28 62  1  0
 30 63  1  0
 32 64  1  0
 34 65  1  0
 34 66  1  0
 38 67  1  0
 39 68  1  0
 40 69  1  0
 42 70  1  0
M  CHG  4   2   1   7  -1  33   1  35  -1
M  END
>  <SMILES_raw>  (26) 
OC1=CC=C(C=C1)C[C@@H](C(O)=O)NCC2=CN(C3=CC=CC([N+]([O-])=O)=C3)N=C2C4=CC=CC(OCC5=CC=CC(Cl)=C5)=C4

>  <Protonation_Method>  (26) 
MolScrub

>  <Target_pH>  (26) 
7.4

$$$$
N-((3-(3-(benzyloxy)phenyl)-1-(3-nitrophenyl)-1H-pyrazol-4-yl)methyl)-L-alanin
     RDKit          3D

 59 62  0  0  0  0  0  0  0  0999 V2000
   -2.6923    4.3872    1.1919 C   0  0  2  0  0  0  0  0  0  0  0  0
   -2.5661    3.0872    0.3960 N   0  0  0  0  0  0  0  0  0  0  0  0
   -1.6487    2.0942    0.9928 C   0  0  0  0  0  0  0  0  0  0  0  0
   -3.8264    4.2256    2.2493 C   0  0  0  0  0  0  0  0  0  0  0  0
   -3.0848    5.4938    0.2293 C   0  0  0  0  0  0  0  0  0  0  0  0
   -4.4757    3.1517    2.0166 O   0  0  0  0  0  0  0  0  0  0  0  0
   -3.9045    5.0921    3.1439 O   0  0  0  0  0  0  0  0  0  0  0  0
   -1.7964    0.7769    0.3278 C   0  0  0  0  0  0  0  0  0  0  0  0
   -2.8736   -0.0867    0.4057 C   0  0  0  0  0  0  0  0  0  0  0  0
   -0.8669    0.1029   -0.5057 C   0  0  0  0  0  0  0  0  0  0  0  0
   -2.5620   -1.2041   -0.3356 N   0  0  0  0  0  0  0  0  0  0  0  0
   -1.3366   -1.0842   -0.8987 N   0  0  0  0  0  0  0  0  0  0  0  0
    0.4488    0.5576   -0.9284 C   0  0  0  0  0  0  0  0  0  0  0  0
   -3.3499   -2.3709   -0.5513 C   0  0  0  0  0  0  0  0  0  0  0  0
    0.5775    1.6406   -1.8036 C   0  0  0  0  0  0  0  0  0  0  0  0
    1.5958   -0.0853   -0.4499 C   0  0  0  0  0  0  0  0  0  0  0  0
   -2.8288   -3.4139   -1.3378 C   0  0  0  0  0  0  0  0  0  0  0  0
   -4.6323   -2.4992    0.0009 C   0  0  0  0  0  0  0  0  0  0  0  0
    1.8462    2.0821   -2.1803 C   0  0  0  0  0  0  0  0  0  0  0  0
    2.8685    0.3537   -0.8258 C   0  0  0  0  0  0  0  0  0  0  0  0
   -3.5743   -4.5719   -1.5733 C   0  0  0  0  0  0  0  0  0  0  0  0
   -5.3741   -3.6680   -0.2448 C   0  0  0  0  0  0  0  0  0  0  0  0
    2.9893    1.4437   -1.6892 C   0  0  0  0  0  0  0  0  0  0  0  0
    3.8985   -0.3589   -0.2792 O   0  0  0  0  0  0  0  0  0  0  0  0
   -4.8499   -4.7040   -1.0289 C   0  0  0  0  0  0  0  0  0  0  0  0
   -6.7219   -3.8062    0.3248 N   0  0  0  0  0  0  0  0  0  0  0  0
    5.2200   -0.0206   -0.6931 C   0  0  0  0  0  0  0  0  0  0  0  0
   -7.3541   -4.8402    0.0673 O   0  0  0  0  0  0  0  0  0  0  0  0
   -7.1468   -2.8776    1.0261 O   0  0  0  0  0  0  0  0  0  0  0  0
    6.1807   -0.9655   -0.0155 C   0  0  0  0  0  0  0  0  0  0  0  0
    6.6286   -0.7086    1.2884 C   0  0  0  0  0  0  0  0  0  0  0  0
    6.6114   -2.1316   -0.6642 C   0  0  0  0  0  0  0  0  0  0  0  0
    7.5072   -1.5893    1.9214 C   0  0  0  0  0  0  0  0  0  0  0  0
    7.4904   -3.0108   -0.0295 C   0  0  0  0  0  0  0  0  0  0  0  0
    7.9396   -2.7384    1.2614 C   0  0  0  0  0  0  0  0  0  0  0  0
   -1.7231    4.5897    1.6586 H   0  0  0  0  0  0  0  0  0  0  0  0
   -3.5250    2.6994    0.5727 H   0  0  0  0  0  0  0  0  0  0  0  0
   -2.4637    3.2129   -0.6096 H   0  0  0  0  0  0  0  0  0  0  0  0
   -0.6361    2.4961    0.8936 H   0  0  0  0  0  0  0  0  0  0  0  0
   -1.8839    2.0090    2.0595 H   0  0  0  0  0  0  0  0  0  0  0  0
   -2.3383    5.6063   -0.5644 H   0  0  0  0  0  0  0  0  0  0  0  0
   -4.0538    5.2930   -0.2420 H   0  0  0  0  0  0  0  0  0  0  0  0
   -3.1647    6.4540    0.7510 H   0  0  0  0  0  0  0  0  0  0  0  0
   -3.8074    0.0083    0.9439 H   0  0  0  0  0  0  0  0  0  0  0  0
   -0.3001    2.1296   -2.2171 H   0  0  0  0  0  0  0  0  0  0  0  0
    1.5040   -0.9412    0.2164 H   0  0  0  0  0  0  0  0  0  0  0  0
   -1.8337   -3.3401   -1.7766 H   0  0  0  0  0  0  0  0  0  0  0  0
   -5.0673   -1.7135    0.6128 H   0  0  0  0  0  0  0  0  0  0  0  0
    1.9499    2.9188   -2.8678 H   0  0  0  0  0  0  0  0  0  0  0  0
   -3.1557   -5.3702   -2.1829 H   0  0  0  0  0  0  0  0  0  0  0  0
    3.9571    1.8185   -2.0074 H   0  0  0  0  0  0  0  0  0  0  0  0
   -5.4176   -5.6121   -1.2227 H   0  0  0  0  0  0  0  0  0  0  0  0
    5.4636    1.0096   -0.4027 H   0  0  0  0  0  0  0  0  0  0  0  0
    5.3212   -0.1148   -1.7820 H   0  0  0  0  0  0  0  0  0  0  0  0
    6.2887    0.1777    1.8201 H   0  0  0  0  0  0  0  0  0  0  0  0
    6.2596   -2.3646   -1.6666 H   0  0  0  0  0  0  0  0  0  0  0  0
    7.8493   -1.3822    2.9321 H   0  0  0  0  0  0  0  0  0  0  0  0
    7.8201   -3.9121   -0.5400 H   0  0  0  0  0  0  0  0  0  0  0  0
    8.6209   -3.4256    1.7562 H   0  0  0  0  0  0  0  0  0  0  0  0
  1  2  1  0
  2  3  1  0
  1  4  1  0
  5  1  1  0
  4  6  2  0
  4  7  1  0
  3  8  1  0
  8  9  2  0
 10  8  1  0
  9 11  1  0
 12 10  2  0
 10 13  1  0
 11 14  1  0
 11 12  1  0
 13 15  2  0
 16 13  1  0
 14 17  2  0
 18 14  1  0
 15 19  1  0
 20 16  2  0
 17 21  1  0
 22 18  2  0
 19 23  2  0
 23 20  1  0
 20 24  1  0
 21 25  2  0
 25 22  1  0
 22 26  1  0
 24 27  1  0
 26 28  1  0
 26 29  2  0
 27 30  1  0
 30 31  2  0
 32 30  1  0
 31 33  1  0
 34 32  2  0
 33 35  2  0
 35 34  1  0
  1 36  1  1
  2 37  1  0
  2 38  1  0
  3 39  1  0
  3 40  1  0
  5 41  1  0
  5 42  1  0
  5 43  1  0
  9 44  1  0
 15 45  1  0
 16 46  1  0
 17 47  1  0
 18 48  1  0
 19 49  1  0
 21 50  1  0
 23 51  1  0
 25 52  1  0
 27 53  1  0
 27 54  1  0
 31 55  1  0
 32 56  1  0
 33 57  1  0
 34 58  1  0
 35 59  1  0
M  CHG  4   2   1   7  -1  26   1  28  -1
M  END
>  <SMILES_raw>  (27) 
C[C@@H](C(O)=O)NCC1=CN(C2=CC=CC([N+]([O-])=O)=C2)N=C1C3=CC=CC(OCC4=CC=CC=C4)=C3

>  <Protonation_Method>  (27) 
MolScrub

>  <Target_pH>  (27) 
7.4

$$$$
N-((3-(3-(benzyloxy)phenyl)-1-(3-nitrophenyl)-1H-pyrazol-4-yl)methyl)-L-aspartic acid
     RDKit          3D

 61 64  0  0  0  0  0  0  0  0999 V2000
   -1.0505   -3.1163   -0.4511 C   0  0  2  0  0  0  0  0  0  0  0  0
   -2.0488   -2.1828    0.2308 N   0  0  0  0  0  0  0  0  0  0  0  0
   -1.5587   -1.1721    1.1510 C   0  0  0  0  0  0  0  0  0  0  0  0
   -1.5487   -3.4420   -1.8974 C   0  0  0  0  0  0  0  0  0  0  0  0
   -0.6764   -4.2786    0.4553 C   0  0  0  0  0  0  0  0  0  0  0  0
   -2.5136   -2.6707   -2.2281 O   0  0  0  0  0  0  0  0  0  0  0  0
   -0.9164   -4.2974   -2.5616 O   0  0  0  0  0  0  0  0  0  0  0  0
   -1.8349   -4.9392    1.1891 C   0  0  0  0  0  0  0  0  0  0  0  0
   -2.8489   -4.1878    1.3490 O   0  0  0  0  0  0  0  0  0  0  0  0
   -1.6150   -6.0898    1.6421 O   0  0  0  0  0  0  0  0  0  0  0  0
   -1.8517    0.2110    0.6948 C   0  0  0  0  0  0  0  0  0  0  0  0
   -2.8526    1.0590    1.1268 C   0  0  0  0  0  0  0  0  0  0  0  0
   -1.1764    0.9543   -0.3092 C   0  0  0  0  0  0  0  0  0  0  0  0
   -2.7475    2.2231    0.3998 N   0  0  0  0  0  0  0  0  0  0  0  0
   -1.7029    2.1736   -0.4587 N   0  0  0  0  0  0  0  0  0  0  0  0
   -0.0630    0.5050   -1.1263 C   0  0  0  0  0  0  0  0  0  0  0  0
   -3.5698    3.3850    0.4724 C   0  0  0  0  0  0  0  0  0  0  0  0
   -0.3058   -0.0320   -2.3934 C   0  0  0  0  0  0  0  0  0  0  0  0
    1.2391    0.5214   -0.6156 C   0  0  0  0  0  0  0  0  0  0  0  0
   -3.2992    4.4712   -0.3799 C   0  0  0  0  0  0  0  0  0  0  0  0
   -4.6425    3.4656    1.3711 C   0  0  0  0  0  0  0  0  0  0  0  0
    0.7465   -0.5664   -3.1348 C   0  0  0  0  0  0  0  0  0  0  0  0
    2.2921   -0.0304   -1.3501 C   0  0  0  0  0  0  0  0  0  0  0  0
   -4.0870    5.6244   -0.3397 C   0  0  0  0  0  0  0  0  0  0  0  0
   -5.4268    4.6312    1.4042 C   0  0  0  0  0  0  0  0  0  0  0  0
    2.0436   -0.5664   -2.6154 C   0  0  0  0  0  0  0  0  0  0  0  0
    3.5082    0.0090   -0.7249 O   0  0  0  0  0  0  0  0  0  0  0  0
   -5.1543    5.7099    0.5517 C   0  0  0  0  0  0  0  0  0  0  0  0
   -6.5476    4.7257    2.3495 N   0  0  0  0  0  0  0  0  0  0  0  0
    4.5107   -0.8672   -1.2367 C   0  0  0  0  0  0  0  0  0  0  0  0
   -6.7207    3.7821    3.1339 O   0  0  0  0  0  0  0  0  0  0  0  0
   -7.2517    5.7453    2.3115 O   0  0  0  0  0  0  0  0  0  0  0  0
    5.6659   -0.8693   -0.2653 C   0  0  0  0  0  0  0  0  0  0  0  0
    5.8358   -1.9263    0.6402 C   0  0  0  0  0  0  0  0  0  0  0  0
    6.5664    0.2050   -0.2324 C   0  0  0  0  0  0  0  0  0  0  0  0
    6.8977   -1.9175    1.5461 C   0  0  0  0  0  0  0  0  0  0  0  0
    7.6275    0.2117    0.6744 C   0  0  0  0  0  0  0  0  0  0  0  0
    7.7946   -0.8502    1.5613 C   0  0  0  0  0  0  0  0  0  0  0  0
   -0.1495   -2.5131   -0.6176 H   0  0  0  0  0  0  0  0  0  0  0  0
   -2.6142   -1.8453   -0.5765 H   0  0  0  0  0  0  0  0  0  0  0  0
   -2.7105   -2.8444    0.7158 H   0  0  0  0  0  0  0  0  0  0  0  0
   -2.0467   -1.3602    2.1144 H   0  0  0  0  0  0  0  0  0  0  0  0
   -0.4839   -1.3171    1.3056 H   0  0  0  0  0  0  0  0  0  0  0  0
   -0.1414   -5.0451   -0.1171 H   0  0  0  0  0  0  0  0  0  0  0  0
    0.0155   -3.9223    1.2294 H   0  0  0  0  0  0  0  0  0  0  0  0
   -3.6218    0.9065    1.8690 H   0  0  0  0  0  0  0  0  0  0  0  0
   -1.3182   -0.0801   -2.7942 H   0  0  0  0  0  0  0  0  0  0  0  0
    1.4376    0.9386    0.3687 H   0  0  0  0  0  0  0  0  0  0  0  0
   -2.4725    4.4291   -1.0899 H   0  0  0  0  0  0  0  0  0  0  0  0
   -4.8793    2.6445    2.0429 H   0  0  0  0  0  0  0  0  0  0  0  0
    0.5442   -1.0146   -4.1061 H   0  0  0  0  0  0  0  0  0  0  0  0
   -3.8647    6.4531   -1.0090 H   0  0  0  0  0  0  0  0  0  0  0  0
    2.8304   -1.0014   -3.2225 H   0  0  0  0  0  0  0  0  0  0  0  0
   -5.7584    6.6146    0.5698 H   0  0  0  0  0  0  0  0  0  0  0  0
    4.1224   -1.8877   -1.3471 H   0  0  0  0  0  0  0  0  0  0  0  0
    4.8651   -0.5145   -2.2130 H   0  0  0  0  0  0  0  0  0  0  0  0
    5.1369   -2.7610    0.6481 H   0  0  0  0  0  0  0  0  0  0  0  0
    6.4355    1.0450   -0.9106 H   0  0  0  0  0  0  0  0  0  0  0  0
    7.0195   -2.7418    2.2435 H   0  0  0  0  0  0  0  0  0  0  0  0
    8.3190    1.0495    0.6926 H   0  0  0  0  0  0  0  0  0  0  0  0
    8.6184   -0.8435    2.2696 H   0  0  0  0  0  0  0  0  0  0  0  0
  1  2  1  0
  2  3  1  0
  1  4  1  0
  5  1  1  0
  4  6  2  0
  4  7  1  0
  5  8  1  0
  8  9  2  0
  8 10  1  0
  3 11  1  0
 11 12  2  0
 13 11  1  0
 12 14  1  0
 15 13  2  0
 13 16  1  0
 14 17  1  0
 14 15  1  0
 16 18  2  0
 19 16  1  0
 17 20  2  0
 21 17  1  0
 18 22  1  0
 23 19  2  0
 20 24  1  0
 25 21  2  0
 22 26  2  0
 26 23  1  0
 23 27  1  0
 24 28  2  0
 28 25  1  0
 25 29  1  0
 27 30  1  0
 29 31  1  0
 29 32  2  0
 30 33  1  0
 33 34  2  0
 35 33  1  0
 34 36  1  0
 37 35  2  0
 36 38  2  0
 38 37  1  0
  1 39  1  6
  2 40  1  0
  2 41  1  0
  3 42  1  0
  3 43  1  0
  5 44  1  0
  5 45  1  0
 12 46  1  0
 18 47  1  0
 19 48  1  0
 20 49  1  0
 21 50  1  0
 22 51  1  0
 24 52  1  0
 26 53  1  0
 28 54  1  0
 30 55  1  0
 30 56  1  0
 34 57  1  0
 35 58  1  0
 36 59  1  0
 37 60  1  0
 38 61  1  0
M  CHG  5   2   1   7  -1  10  -1  29   1  31  -1
M  END
>  <SMILES_raw>  (28) 
O=C(O)C[C@@H](C(O)=O)NCC1=CN(C2=CC=CC([N+]([O-])=O)=C2)N=C1C3=CC=CC(OCC4=CC=CC=C4)=C3

>  <Protonation_Method>  (28) 
MolScrub

>  <Target_pH>  (28) 
7.4

$$$$
N-((3-(3-(benzyloxy)phenyl)-1-(3-nitrophenyl)-1H-pyrazol-4-yl)methyl)-L-phenylalanin
     RDKit          3D

 69 73  0  0  0  0  0  0  0  0999 V2000
   -3.4658   -0.8523    0.4073 C   0  0  2  0  0  0  0  0  0  0  0  0
   -2.3211    0.0359   -0.1312 N   0  0  0  0  0  0  0  0  0  0  0  0
   -1.4514    0.6791    0.8853 C   0  0  0  0  0  0  0  0  0  0  0  0
   -4.5794    0.0954    0.9666 C   0  0  0  0  0  0  0  0  0  0  0  0
   -2.9277   -1.9288    1.3510 C   0  0  0  0  0  0  0  0  0  0  0  0
   -5.3028   -0.3135    1.8964 O   0  0  0  0  0  0  0  0  0  0  0  0
   -4.4901    1.2344    0.3928 O   0  0  0  0  0  0  0  0  0  0  0  0
   -3.5595   -3.2793    1.0977 C   0  0  0  0  0  0  0  0  0  0  0  0
   -4.8152   -3.5838    1.6394 C   0  0  0  0  0  0  0  0  0  0  0  0
   -2.9145   -4.2333    0.2968 C   0  0  0  0  0  0  0  0  0  0  0  0
   -5.4142   -4.8184    1.3878 C   0  0  0  0  0  0  0  0  0  0  0  0
   -3.5165   -5.4684    0.0469 C   0  0  0  0  0  0  0  0  0  0  0  0
   -4.7659   -5.7601    0.5917 C   0  0  0  0  0  0  0  0  0  0  0  0
   -0.8612    1.9361    0.3604 C   0  0  0  0  0  0  0  0  0  0  0  0
   -1.5334    3.1179    0.1073 C   0  0  0  0  0  0  0  0  0  0  0  0
    0.4908    2.2269    0.0379 C   0  0  0  0  0  0  0  0  0  0  0  0
   -0.6094    4.0359   -0.3301 N   0  0  0  0  0  0  0  0  0  0  0  0
    0.6302    3.4951   -0.3636 N   0  0  0  0  0  0  0  0  0  0  0  0
    1.6481    1.3441    0.1065 C   0  0  0  0  0  0  0  0  0  0  0  0
   -0.8239    5.3871   -0.7229 C   0  0  0  0  0  0  0  0  0  0  0  0
    2.7659    1.7120    0.8625 C   0  0  0  0  0  0  0  0  0  0  0  0
    1.6582    0.1274   -0.5860 C   0  0  0  0  0  0  0  0  0  0  0  0
   -2.1058    5.9570   -0.6922 C   0  0  0  0  0  0  0  0  0  0  0  0
    0.2686    6.1595   -1.1542 C   0  0  0  0  0  0  0  0  0  0  0  0
    3.8674    0.8588    0.9455 C   0  0  0  0  0  0  0  0  0  0  0  0
    2.7688   -0.7186   -0.5212 C   0  0  0  0  0  0  0  0  0  0  0  0
   -2.2963    7.2848   -1.0896 C   0  0  0  0  0  0  0  0  0  0  0  0
    0.0652    7.4882   -1.5511 C   0  0  0  0  0  0  0  0  0  0  0  0
    3.8653   -0.3597    0.2627 C   0  0  0  0  0  0  0  0  0  0  0  0
    2.6510   -1.8821   -1.2307 O   0  0  0  0  0  0  0  0  0  0  0  0
   -1.2153    8.0542   -1.5207 C   0  0  0  0  0  0  0  0  0  0  0  0
    1.2039    8.2956   -2.0081 N   0  0  0  0  0  0  0  0  0  0  0  0
    3.8660   -2.4539   -1.7340 C   0  0  0  0  0  0  0  0  0  0  0  0
    2.3306    7.7822   -1.9680 O   0  0  0  0  0  0  0  0  0  0  0  0
    0.9700    9.4445   -2.4092 O   0  0  0  0  0  0  0  0  0  0  0  0
    4.4370   -3.5250   -0.8329 C   0  0  0  0  0  0  0  0  0  0  0  0
    5.8211   -3.7543   -0.8162 C   0  0  0  0  0  0  0  0  0  0  0  0
    3.6083   -4.3425   -0.0513 C   0  0  0  0  0  0  0  0  0  0  0  0
    6.3646   -4.7610   -0.0168 C   0  0  0  0  0  0  0  0  0  0  0  0
    4.1539   -5.3485    0.7484 C   0  0  0  0  0  0  0  0  0  0  0  0
    5.5314   -5.5561    0.7667 C   0  0  0  0  0  0  0  0  0  0  0  0
   -3.8815   -1.3024   -0.5033 H   0  0  0  0  0  0  0  0  0  0  0  0
   -1.8353   -0.3609   -0.9336 H   0  0  0  0  0  0  0  0  0  0  0  0
   -2.9141    0.8257   -0.4774 H   0  0  0  0  0  0  0  0  0  0  0  0
   -2.0557    0.8961    1.7730 H   0  0  0  0  0  0  0  0  0  0  0  0
   -0.6874   -0.0517    1.1637 H   0  0  0  0  0  0  0  0  0  0  0  0
   -1.8437   -2.0492    1.2338 H   0  0  0  0  0  0  0  0  0  0  0  0
   -3.0826   -1.6517    2.4010 H   0  0  0  0  0  0  0  0  0  0  0  0
   -5.3412   -2.8572    2.2599 H   0  0  0  0  0  0  0  0  0  0  0  0
   -1.9389   -4.0279   -0.1362 H   0  0  0  0  0  0  0  0  0  0  0  0
   -6.3899   -5.0402    1.8131 H   0  0  0  0  0  0  0  0  0  0  0  0
   -3.0137   -6.2064   -0.5737 H   0  0  0  0  0  0  0  0  0  0  0  0
   -5.2369   -6.7203    0.3962 H   0  0  0  0  0  0  0  0  0  0  0  0
   -2.5825    3.3597    0.2203 H   0  0  0  0  0  0  0  0  0  0  0  0
    2.7840    2.6639    1.3904 H   0  0  0  0  0  0  0  0  0  0  0  0
    0.8203   -0.1594   -1.2140 H   0  0  0  0  0  0  0  0  0  0  0  0
   -2.9804    5.3993   -0.3658 H   0  0  0  0  0  0  0  0  0  0  0  0
    1.2684    5.7273   -1.1842 H   0  0  0  0  0  0  0  0  0  0  0  0
    4.7289    1.1445    1.5449 H   0  0  0  0  0  0  0  0  0  0  0  0
   -3.2941    7.7194   -1.0627 H   0  0  0  0  0  0  0  0  0  0  0  0
    4.7295   -1.0095    0.3683 H   0  0  0  0  0  0  0  0  0  0  0  0
   -1.3863    9.0846   -1.8271 H   0  0  0  0  0  0  0  0  0  0  0  0
    4.6064   -1.6763   -1.9630 H   0  0  0  0  0  0  0  0  0  0  0  0
    3.6144   -2.9287   -2.6903 H   0  0  0  0  0  0  0  0  0  0  0  0
    6.4885   -3.1496   -1.4269 H   0  0  0  0  0  0  0  0  0  0  0  0
    2.5301   -4.1991   -0.0595 H   0  0  0  0  0  0  0  0  0  0  0  0
    7.4386   -4.9287   -0.0078 H   0  0  0  0  0  0  0  0  0  0  0  0
    3.5026   -5.9731    1.3547 H   0  0  0  0  0  0  0  0  0  0  0  0
    5.9557   -6.3409    1.3874 H   0  0  0  0  0  0  0  0  0  0  0  0
  1  2  1  0
  2  3  1  0
  1  4  1  0
  1  5  1  0
  4  6  2  0
  4  7  1  0
  5  8  1  0
  8  9  2  0
 10  8  1  0
  9 11  1  0
 12 10  2  0
 11 13  2  0
 13 12  1  0
  3 14  1  0
 14 15  2  0
 16 14  1  0
 15 17  1  0
 18 16  2  0
 16 19  1  0
 17 20  1  0
 17 18  1  0
 19 21  2  0
 22 19  1  0
 20 23  2  0
 24 20  1  0
 21 25  1  0
 26 22  2  0
 23 27  1  0
 28 24  2  0
 25 29  2  0
 29 26  1  0
 26 30  1  0
 27 31  2  0
 31 28  1  0
 28 32  1  0
 30 33  1  0
 32 34  1  0
 32 35  2  0
 33 36  1  0
 36 37  2  0
 38 36  1  0
 37 39  1  0
 40 38  2  0
 39 41  2  0
 41 40  1  0
  1 42  1  6
  2 43  1  0
  2 44  1  0
  3 45  1  0
  3 46  1  0
  5 47  1  0
  5 48  1  0
  9 49  1  0
 10 50  1  0
 11 51  1  0
 12 52  1  0
 13 53  1  0
 15 54  1  0
 21 55  1  0
 22 56  1  0
 23 57  1  0
 24 58  1  0
 25 59  1  0
 27 60  1  0
 29 61  1  0
 31 62  1  0
 33 63  1  0
 33 64  1  0
 37 65  1  0
 38 66  1  0
 39 67  1  0
 40 68  1  0
 41 69  1  0
M  CHG  4   2   1   7  -1  32   1  34  -1
M  END
>  <SMILES_raw>  (29) 
O=C(O)[C@H](CC1=CC=CC=C1)NCC2=CN(C3=CC=CC([N+]([O-])=O)=C3)N=C2C4=CC=CC(OCC5=CC=CC=C5)=C4

>  <Protonation_Method>  (29) 
MolScrub

>  <Target_pH>  (29) 
7.4

$$$$
N-((3-(3-(benzyloxy)phenyl)-1-(3-nitrophenyl)-1H-pyrazol-4-yl)methyl)-L-isoleucin
     RDKit          3D

 68 71  0  0  0  0  0  0  0  0999 V2000
   -3.9463   -1.9600    0.6789 C   0  0  2  0  0  0  0  0  0  0  0  0
   -2.4934   -2.2797    0.2624 N   0  0  0  0  0  0  0  0  0  0  0  0
   -1.4451   -1.6424    1.0943 C   0  0  0  0  0  0  0  0  0  0  0  0
   -4.2986   -2.8685    1.8983 C   0  0  0  0  0  0  0  0  0  0  0  0
   -4.8494   -2.1334   -0.5629 C   0  0  2  0  0  0  0  0  0  0  0  0
   -3.5333   -3.8882    1.9066 O   0  0  0  0  0  0  0  0  0  0  0  0
   -5.1349   -2.4278    2.7143 O   0  0  0  0  0  0  0  0  0  0  0  0
   -6.2825   -1.5989   -0.3314 C   0  0  0  0  0  0  0  0  0  0  0  0
   -4.8358   -3.5500   -1.1480 C   0  0  0  0  0  0  0  0  0  0  0  0
   -7.3122   -2.6021    0.1714 C   0  0  0  0  0  0  0  0  0  0  0  0
   -1.0820   -0.2868    0.6054 C   0  0  0  0  0  0  0  0  0  0  0  0
   -1.7577    0.8991    0.8292 C   0  0  0  0  0  0  0  0  0  0  0  0
    0.0620    0.1027   -0.1460 C   0  0  0  0  0  0  0  0  0  0  0  0
   -1.0374    1.9087    0.2334 N   0  0  0  0  0  0  0  0  0  0  0  0
    0.0768    1.4232   -0.3559 N   0  0  0  0  0  0  0  0  0  0  0  0
    1.1551   -0.7291   -0.6400 C   0  0  0  0  0  0  0  0  0  0  0  0
   -1.3347    3.3004    0.1900 C   0  0  0  0  0  0  0  0  0  0  0  0
    0.9031   -1.8315   -1.4651 C   0  0  0  0  0  0  0  0  0  0  0  0
    2.4767   -0.4137   -0.2839 C   0  0  0  0  0  0  0  0  0  0  0  0
   -2.4931    3.8160    0.7912 C   0  0  0  0  0  0  0  0  0  0  0  0
   -0.4502    4.1714   -0.4694 C   0  0  0  0  0  0  0  0  0  0  0  0
    1.9592   -2.6285   -1.9047 C   0  0  0  0  0  0  0  0  0  0  0  0
    3.5352   -1.2064   -0.7284 C   0  0  0  0  0  0  0  0  0  0  0  0
   -2.7667    5.1868    0.7343 C   0  0  0  0  0  0  0  0  0  0  0  0
   -0.7343    5.5432   -0.5188 C   0  0  0  0  0  0  0  0  0  0  0  0
    3.2665   -2.3184   -1.5298 C   0  0  0  0  0  0  0  0  0  0  0  0
    4.8592   -1.0126   -0.4500 O   0  0  0  0  0  0  0  0  0  0  0  0
   -1.8914    6.0546    0.0811 C   0  0  0  0  0  0  0  0  0  0  0  0
    0.1909    6.4555   -1.2046 N   0  0  0  0  0  0  0  0  0  0  0  0
    5.2105    0.1849    0.2405 C   0  0  0  0  0  0  0  0  0  0  0  0
   -0.1205    7.6535   -1.2629 O   0  0  0  0  0  0  0  0  0  0  0  0
    1.2273    5.9753   -1.6837 O   0  0  0  0  0  0  0  0  0  0  0  0
    6.7126    0.2284    0.3713 C   0  0  0  0  0  0  0  0  0  0  0  0
    7.3562   -0.4808    1.3957 C   0  0  0  0  0  0  0  0  0  0  0  0
    7.4888    0.9501   -0.5462 C   0  0  0  0  0  0  0  0  0  0  0  0
    8.7467   -0.4495    1.5128 C   0  0  0  0  0  0  0  0  0  0  0  0
    8.8793    0.9799   -0.4275 C   0  0  0  0  0  0  0  0  0  0  0  0
    9.5073    0.2829    0.6032 C   0  0  0  0  0  0  0  0  0  0  0  0
   -3.9543   -0.9115    0.9918 H   0  0  0  0  0  0  0  0  0  0  0  0
   -2.4731   -3.2875    0.5514 H   0  0  0  0  0  0  0  0  0  0  0  0
   -2.3254   -2.2248   -0.7401 H   0  0  0  0  0  0  0  0  0  0  0  0
   -1.7961   -1.6079    2.1316 H   0  0  0  0  0  0  0  0  0  0  0  0
   -0.5820   -2.3154    1.0659 H   0  0  0  0  0  0  0  0  0  0  0  0
   -4.4209   -1.4779   -1.3363 H   0  0  0  0  0  0  0  0  0  0  0  0
   -6.2516   -0.7405    0.3505 H   0  0  0  0  0  0  0  0  0  0  0  0
   -6.6553   -1.2057   -1.2865 H   0  0  0  0  0  0  0  0  0  0  0  0
   -5.1903   -4.2942   -0.4281 H   0  0  0  0  0  0  0  0  0  0  0  0
   -5.4756   -3.6040   -2.0356 H   0  0  0  0  0  0  0  0  0  0  0  0
   -3.8291   -3.8440   -1.4615 H   0  0  0  0  0  0  0  0  0  0  0  0
   -6.9870   -3.1177    1.0762 H   0  0  0  0  0  0  0  0  0  0  0  0
   -8.2512   -2.0867    0.3992 H   0  0  0  0  0  0  0  0  0  0  0  0
   -7.5350   -3.3555   -0.5900 H   0  0  0  0  0  0  0  0  0  0  0  0
   -2.6673    1.0951    1.3778 H   0  0  0  0  0  0  0  0  0  0  0  0
   -0.1029   -2.0671   -1.7960 H   0  0  0  0  0  0  0  0  0  0  0  0
    2.6476    0.4577    0.3415 H   0  0  0  0  0  0  0  0  0  0  0  0
   -3.2067    3.1847    1.3134 H   0  0  0  0  0  0  0  0  0  0  0  0
    0.4534    3.7845   -0.9402 H   0  0  0  0  0  0  0  0  0  0  0  0
    1.7731   -3.4844   -2.5490 H   0  0  0  0  0  0  0  0  0  0  0  0
   -3.6682    5.5798    1.2024 H   0  0  0  0  0  0  0  0  0  0  0  0
    4.0896   -2.9394   -1.8779 H   0  0  0  0  0  0  0  0  0  0  0  0
   -2.1229    7.1177    0.0495 H   0  0  0  0  0  0  0  0  0  0  0  0
    4.8635    1.0669   -0.3128 H   0  0  0  0  0  0  0  0  0  0  0  0
    4.7646    0.1973    1.2432 H   0  0  0  0  0  0  0  0  0  0  0  0
    6.7749   -1.0665    2.1045 H   0  0  0  0  0  0  0  0  0  0  0  0
    7.0142    1.4905   -1.3624 H   0  0  0  0  0  0  0  0  0  0  0  0
    9.2371   -1.0007    2.3109 H   0  0  0  0  0  0  0  0  0  0  0  0
    9.4730    1.5438   -1.1423 H   0  0  0  0  0  0  0  0  0  0  0  0
   10.5901    0.3051    0.6933 H   0  0  0  0  0  0  0  0  0  0  0  0
  1  2  1  0
  2  3  1  0
  1  4  1  0
  5  1  1  0
  4  6  2  0
  4  7  1  0
  8  5  1  0
  5  9  1  0
 10  8  1  0
  3 11  1  0
 11 12  2  0
 13 11  1  0
 12 14  1  0
 15 13  2  0
 13 16  1  0
 14 17  1  0
 14 15  1  0
 16 18  2  0
 19 16  1  0
 17 20  2  0
 21 17  1  0
 18 22  1  0
 23 19  2  0
 20 24  1  0
 25 21  2  0
 22 26  2  0
 26 23  1  0
 23 27  1  0
 24 28  2  0
 28 25  1  0
 25 29  1  0
 27 30  1  0
 29 31  1  0
 29 32  2  0
 30 33  1  0
 33 34  2  0
 35 33  1  0
 34 36  1  0
 37 35  2  0
 36 38  2  0
 38 37  1  0
  1 39  1  1
  2 40  1  0
  2 41  1  0
  3 42  1  0
  3 43  1  0
  5 44  1  6
  8 45  1  0
  8 46  1  0
  9 47  1  0
  9 48  1  0
  9 49  1  0
 10 50  1  0
 10 51  1  0
 10 52  1  0
 12 53  1  0
 18 54  1  0
 19 55  1  0
 20 56  1  0
 21 57  1  0
 22 58  1  0
 24 59  1  0
 26 60  1  0
 28 61  1  0
 30 62  1  0
 30 63  1  0
 34 64  1  0
 35 65  1  0
 36 66  1  0
 37 67  1  0
 38 68  1  0
M  CHG  4   2   1   7  -1  29   1  31  -1
M  END
>  <SMILES_raw>  (30) 
CC[C@H](C)[C@@H](C(O)=O)NCC1=CN(C2=CC=CC([N+]([O-])=O)=C2)N=C1C3=CC=CC(OCC4=CC=CC=C4)=C3

>  <Protonation_Method>  (30) 
MolScrub

>  <Target_pH>  (30) 
7.4

$$$$
N-((3-(3-(benzyloxy)phenyl)-1-(3-nitrophenyl)-1H-pyrazol-4-yl)methyl)-L-leucin
     RDKit          3D

 68 71  0  0  0  0  0  0  0  0999 V2000
    2.9236   -1.8106    0.9886 C   0  0  2  0  0  0  0  0  0  0  0  0
    2.4653   -0.5213    0.2836 N   0  0  0  0  0  0  0  0  0  0  0  0
    1.1528   -0.0243    0.7543 C   0  0  0  0  0  0  0  0  0  0  0  0
    3.5737   -1.4005    2.3481 C   0  0  0  0  0  0  0  0  0  0  0  0
    3.9609   -2.4731    0.0764 C   0  0  0  0  0  0  0  0  0  0  0  0
    3.9710   -0.1892    2.2833 O   0  0  0  0  0  0  0  0  0  0  0  0
    3.5038   -2.2232    3.2852 O   0  0  0  0  0  0  0  0  0  0  0  0
    4.4525   -3.8581    0.5455 C   0  0  0  0  0  0  0  0  0  0  0  0
    5.5141   -4.3830   -0.4265 C   0  0  0  0  0  0  0  0  0  0  0  0
    3.3125   -4.8717    0.6590 C   0  0  0  0  0  0  0  0  0  0  0  0
    0.8546    1.3149    0.1909 C   0  0  0  0  0  0  0  0  0  0  0  0
    1.5527    2.4930    0.3826 C   0  0  0  0  0  0  0  0  0  0  0  0
   -0.2407    1.6874   -0.6308 C   0  0  0  0  0  0  0  0  0  0  0  0
    0.8794    3.4859   -0.2942 N   0  0  0  0  0  0  0  0  0  0  0  0
   -0.2086    2.9883   -0.9274 N   0  0  0  0  0  0  0  0  0  0  0  0
   -1.3157    0.8378   -1.1169 C   0  0  0  0  0  0  0  0  0  0  0  0
    1.2013    4.8707   -0.3860 C   0  0  0  0  0  0  0  0  0  0  0  0
   -1.0694   -0.1287   -2.0969 C   0  0  0  0  0  0  0  0  0  0  0  0
   -2.5978    0.9599   -0.5700 C   0  0  0  0  0  0  0  0  0  0  0  0
    0.3678    5.7181   -1.1398 C   0  0  0  0  0  0  0  0  0  0  0  0
    2.3231    5.4057    0.2605 C   0  0  0  0  0  0  0  0  0  0  0  0
   -2.0973   -0.9788   -2.5051 C   0  0  0  0  0  0  0  0  0  0  0  0
   -3.6312    0.1099   -0.9757 C   0  0  0  0  0  0  0  0  0  0  0  0
    0.6590    7.0788   -1.2640 C   0  0  0  0  0  0  0  0  0  0  0  0
    2.6053    6.7770    0.1285 C   0  0  0  0  0  0  0  0  0  0  0  0
   -3.3722   -0.8653   -1.9401 C   0  0  0  0  0  0  0  0  0  0  0  0
   -4.8190    0.3201   -0.3319 O   0  0  0  0  0  0  0  0  0  0  0  0
    1.7840    7.6142   -0.6362 C   0  0  0  0  0  0  0  0  0  0  0  0
    3.7812    7.3434    0.8022 N   0  0  0  0  0  0  0  0  0  0  0  0
   -5.9707   -0.4189   -0.7524 C   0  0  0  0  0  0  0  0  0  0  0  0
    4.1135    8.4997    0.5060 O   0  0  0  0  0  0  0  0  0  0  0  0
    4.3684    6.6298    1.6267 O   0  0  0  0  0  0  0  0  0  0  0  0
   -6.0551   -1.8084   -0.1566 C   0  0  0  0  0  0  0  0  0  0  0  0
   -6.8011   -2.7987   -0.8126 C   0  0  0  0  0  0  0  0  0  0  0  0
   -5.4470   -2.1234    1.0674 C   0  0  0  0  0  0  0  0  0  0  0  0
   -6.9122   -4.0809   -0.2703 C   0  0  0  0  0  0  0  0  0  0  0  0
   -5.5553   -3.4073    1.6063 C   0  0  0  0  0  0  0  0  0  0  0  0
   -6.2870   -4.3859    0.9372 C   0  0  0  0  0  0  0  0  0  0  0  0
    2.0311   -2.4287    1.1219 H   0  0  0  0  0  0  0  0  0  0  0  0
    3.1699    0.1435    0.6827 H   0  0  0  0  0  0  0  0  0  0  0  0
    2.5720   -0.5303   -0.7294 H   0  0  0  0  0  0  0  0  0  0  0  0
    0.4134   -0.7683    0.4488 H   0  0  0  0  0  0  0  0  0  0  0  0
    1.1696    0.0185    1.8470 H   0  0  0  0  0  0  0  0  0  0  0  0
    4.8325   -1.8115   -0.0251 H   0  0  0  0  0  0  0  0  0  0  0  0
    3.5354   -2.5773   -0.9308 H   0  0  0  0  0  0  0  0  0  0  0  0
    4.9279   -3.7622    1.5284 H   0  0  0  0  0  0  0  0  0  0  0  0
    5.1058   -4.4972   -1.4373 H   0  0  0  0  0  0  0  0  0  0  0  0
    5.8948   -5.3583   -0.1012 H   0  0  0  0  0  0  0  0  0  0  0  0
    6.3639   -3.6942   -0.4799 H   0  0  0  0  0  0  0  0  0  0  0  0
    2.6283   -4.6101    1.4706 H   0  0  0  0  0  0  0  0  0  0  0  0
    3.6984   -5.8769    0.8730 H   0  0  0  0  0  0  0  0  0  0  0  0
    2.7365   -4.9239   -0.2715 H   0  0  0  0  0  0  0  0  0  0  0  0
    2.4433    2.6936    0.9623 H   0  0  0  0  0  0  0  0  0  0  0  0
   -0.0883   -0.2207   -2.5551 H   0  0  0  0  0  0  0  0  0  0  0  0
   -2.7979    1.7195    0.1840 H   0  0  0  0  0  0  0  0  0  0  0  0
   -0.5153    5.3277   -1.6461 H   0  0  0  0  0  0  0  0  0  0  0  0
    2.9879    4.7850    0.8559 H   0  0  0  0  0  0  0  0  0  0  0  0
   -1.9101   -1.7356   -3.2644 H   0  0  0  0  0  0  0  0  0  0  0  0
    0.0072    7.7192   -1.8562 H   0  0  0  0  0  0  0  0  0  0  0  0
   -4.1366   -1.5618   -2.2713 H   0  0  0  0  0  0  0  0  0  0  0  0
    1.9980    8.6758   -0.7438 H   0  0  0  0  0  0  0  0  0  0  0  0
   -6.0421   -0.4363   -1.8480 H   0  0  0  0  0  0  0  0  0  0  0  0
   -6.8448    0.1422   -0.3988 H   0  0  0  0  0  0  0  0  0  0  0  0
   -7.3052   -2.5781   -1.7505 H   0  0  0  0  0  0  0  0  0  0  0  0
   -4.8768   -1.3718    1.6072 H   0  0  0  0  0  0  0  0  0  0  0  0
   -7.4927   -4.8392   -0.7882 H   0  0  0  0  0  0  0  0  0  0  0  0
   -5.0703   -3.6430    2.5502 H   0  0  0  0  0  0  0  0  0  0  0  0
   -6.3756   -5.3829    1.3602 H   0  0  0  0  0  0  0  0  0  0  0  0
  1  2  1  0
  2  3  1  0
  1  4  1  0
  5  1  1  0
  4  6  2  0
  4  7  1  0
  8  5  1  0
  9  8  1  0
  8 10  1  0
  3 11  1  0
 11 12  2  0
 13 11  1  0
 12 14  1  0
 15 13  2  0
 13 16  1  0
 14 17  1  0
 14 15  1  0
 16 18  2  0
 19 16  1  0
 17 20  2  0
 21 17  1  0
 18 22  1  0
 23 19  2  0
 20 24  1  0
 25 21  2  0
 22 26  2  0
 26 23  1  0
 23 27  1  0
 24 28  2  0
 28 25  1  0
 25 29  1  0
 27 30  1  0
 29 31  1  0
 29 32  2  0
 30 33  1  0
 33 34  2  0
 35 33  1  0
 34 36  1  0
 37 35  2  0
 36 38  2  0
 38 37  1  0
  1 39  1  1
  2 40  1  0
  2 41  1  0
  3 42  1  0
  3 43  1  0
  5 44  1  0
  5 45  1  0
  8 46  1  0
  9 47  1  0
  9 48  1  0
  9 49  1  0
 10 50  1  0
 10 51  1  0
 10 52  1  0
 12 53  1  0
 18 54  1  0
 19 55  1  0
 20 56  1  0
 21 57  1  0
 22 58  1  0
 24 59  1  0
 26 60  1  0
 28 61  1  0
 30 62  1  0
 30 63  1  0
 34 64  1  0
 35 65  1  0
 36 66  1  0
 37 67  1  0
 38 68  1  0
M  CHG  4   2   1   7  -1  29   1  31  -1
M  END
>  <SMILES_raw>  (31) 
CC(C)C[C@@H](C(O)=O)NCC1=CN(C2=CC=CC([N+]([O-])=O)=C2)N=C1C3=CC=CC(OCC4=CC=CC=C4)=C3

>  <Protonation_Method>  (31) 
MolScrub

>  <Target_pH>  (31) 
7.4

$$$$
N-((3-(3-(benzyloxy)phenyl)-1-(3-nitrophenyl)-1H-pyrazol-4-yl)methyl)-L-methionin
     RDKit          3D

 66 69  0  0  0  0  0  0  0  0999 V2000
   -2.6950    3.0450    0.0758 C   0  0  2  0  0  0  0  0  0  0  0  0
   -2.0661    1.6378    0.0443 N   0  0  0  0  0  0  0  0  0  0  0  0
   -2.9465    0.5260    0.4845 C   0  0  0  0  0  0  0  0  0  0  0  0
   -3.0477    3.4506    1.5433 C   0  0  0  0  0  0  0  0  0  0  0  0
   -3.8259    3.1223   -0.9528 C   0  0  0  0  0  0  0  0  0  0  0  0
   -4.0574    4.1709    1.7137 O   0  0  0  0  0  0  0  0  0  0  0  0
   -2.2633    2.8818    2.3658 O   0  0  0  0  0  0  0  0  0  0  0  0
   -4.1946    4.5469   -1.3799 C   0  0  0  0  0  0  0  0  0  0  0  0
   -2.8452    5.3281   -2.3324 S   0  0  0  0  0  0  0  0  0  0  0  0
   -2.5649    6.7690   -1.2711 C   0  0  0  0  0  0  0  0  0  0  0  0
   -2.3305   -0.8135    0.2783 C   0  0  0  0  0  0  0  0  0  0  0  0
   -2.8894   -1.8819   -0.3986 C   0  0  0  0  0  0  0  0  0  0  0  0
   -1.0627   -1.3013    0.7089 C   0  0  0  0  0  0  0  0  0  0  0  0
   -1.9897   -2.9226   -0.3519 N   0  0  0  0  0  0  0  0  0  0  0  0
   -0.8567   -2.5520    0.2801 N   0  0  0  0  0  0  0  0  0  0  0  0
   -0.0261   -0.5993    1.4597 C   0  0  0  0  0  0  0  0  0  0  0  0
   -2.1354   -4.2374   -0.8783 C   0  0  0  0  0  0  0  0  0  0  0  0
   -0.3267    0.0782    2.6447 C   0  0  0  0  0  0  0  0  0  0  0  0
    1.2888   -0.5735    0.9749 C   0  0  0  0  0  0  0  0  0  0  0  0
   -3.3036   -4.6268   -1.5498 C   0  0  0  0  0  0  0  0  0  0  0  0
   -1.0965   -5.1683   -0.7018 C   0  0  0  0  0  0  0  0  0  0  0  0
    0.6703    0.7892    3.3160 C   0  0  0  0  0  0  0  0  0  0  0  0
    2.2889    0.1434    1.6404 C   0  0  0  0  0  0  0  0  0  0  0  0
   -3.4309   -5.9237   -2.0589 C   0  0  0  0  0  0  0  0  0  0  0  0
   -1.2380   -6.4677   -1.2090 C   0  0  0  0  0  0  0  0  0  0  0  0
    1.9735    0.8244    2.8156 C   0  0  0  0  0  0  0  0  0  0  0  0
    3.5129    0.1091    1.0339 O   0  0  0  0  0  0  0  0  0  0  0  0
   -2.4016   -6.8498   -1.8883 C   0  0  0  0  0  0  0  0  0  0  0  0
   -0.1611   -7.4473   -1.0156 N   0  0  0  0  0  0  0  0  0  0  0  0
    4.5770    0.8139    1.6696 C   0  0  0  0  0  0  0  0  0  0  0  0
   -0.2206   -8.5002   -1.6677 O   0  0  0  0  0  0  0  0  0  0  0  0
    0.7377   -7.1667   -0.2104 O   0  0  0  0  0  0  0  0  0  0  0  0
    5.8168    0.6662    0.8220 C   0  0  0  0  0  0  0  0  0  0  0  0
    6.2506    1.7188    0.0023 C   0  0  0  0  0  0  0  0  0  0  0  0
    6.5420   -0.5348    0.8281 C   0  0  0  0  0  0  0  0  0  0  0  0
    7.3969    1.5787   -0.7804 C   0  0  0  0  0  0  0  0  0  0  0  0
    7.6899   -0.6707    0.0453 C   0  0  0  0  0  0  0  0  0  0  0  0
    8.1166    0.3861   -0.7566 C   0  0  0  0  0  0  0  0  0  0  0  0
   -1.8598    3.6902   -0.2183 H   0  0  0  0  0  0  0  0  0  0  0  0
   -1.3705    1.7339    0.8095 H   0  0  0  0  0  0  0  0  0  0  0  0
   -1.5663    1.4557   -0.8266 H   0  0  0  0  0  0  0  0  0  0  0  0
   -3.8633    0.5891   -0.1093 H   0  0  0  0  0  0  0  0  0  0  0  0
   -3.2094    0.6722    1.5353 H   0  0  0  0  0  0  0  0  0  0  0  0
   -3.5708    2.5365   -1.8470 H   0  0  0  0  0  0  0  0  0  0  0  0
   -4.7325    2.6646   -0.5306 H   0  0  0  0  0  0  0  0  0  0  0  0
   -4.4764    5.1697   -0.5275 H   0  0  0  0  0  0  0  0  0  0  0  0
   -5.0667    4.4992   -2.0427 H   0  0  0  0  0  0  0  0  0  0  0  0
   -2.2913    6.4486   -0.2596 H   0  0  0  0  0  0  0  0  0  0  0  0
   -1.7397    7.3557   -1.6804 H   0  0  0  0  0  0  0  0  0  0  0  0
   -3.4592    7.3966   -1.2389 H   0  0  0  0  0  0  0  0  0  0  0  0
   -3.8474   -1.9771   -0.8879 H   0  0  0  0  0  0  0  0  0  0  0  0
   -1.3299    0.0720    3.0661 H   0  0  0  0  0  0  0  0  0  0  0  0
    1.5447   -1.1126    0.0643 H   0  0  0  0  0  0  0  0  0  0  0  0
   -4.1374   -3.9484   -1.7018 H   0  0  0  0  0  0  0  0  0  0  0  0
   -0.1817   -4.8824   -0.1845 H   0  0  0  0  0  0  0  0  0  0  0  0
    0.4255    1.3265    4.2307 H   0  0  0  0  0  0  0  0  0  0  0  0
   -4.3429   -6.2152   -2.5755 H   0  0  0  0  0  0  0  0  0  0  0  0
    2.7128    1.3936    3.3713 H   0  0  0  0  0  0  0  0  0  0  0  0
   -2.5192   -7.8596   -2.2804 H   0  0  0  0  0  0  0  0  0  0  0  0
    4.3265    1.8777    1.7661 H   0  0  0  0  0  0  0  0  0  0  0  0
    4.7727    0.4022    2.6683 H   0  0  0  0  0  0  0  0  0  0  0  0
    5.6982    2.6548   -0.0339 H   0  0  0  0  0  0  0  0  0  0  0  0
    6.2095   -1.3715    1.4411 H   0  0  0  0  0  0  0  0  0  0  0  0
    7.7296    2.4001   -1.4109 H   0  0  0  0  0  0  0  0  0  0  0  0
    8.2505   -1.6011    0.0556 H   0  0  0  0  0  0  0  0  0  0  0  0
    9.0088    0.2800   -1.3675 H   0  0  0  0  0  0  0  0  0  0  0  0
  1  2  1  0
  2  3  1  0
  1  4  1  0
  5  1  1  0
  4  6  2  0
  4  7  1  0
  8  5  1  0
  9  8  1  0
 10  9  1  0
  3 11  1  0
 11 12  2  0
 13 11  1  0
 12 14  1  0
 15 13  2  0
 13 16  1  0
 14 17  1  0
 14 15  1  0
 16 18  2  0
 19 16  1  0
 17 20  2  0
 21 17  1  0
 18 22  1  0
 23 19  2  0
 20 24  1  0
 25 21  2  0
 22 26  2  0
 26 23  1  0
 23 27  1  0
 24 28  2  0
 28 25  1  0
 25 29  1  0
 27 30  1  0
 29 31  1  0
 29 32  2  0
 30 33  1  0
 33 34  2  0
 35 33  1  0
 34 36  1  0
 37 35  2  0
 36 38  2  0
 38 37  1  0
  1 39  1  6
  2 40  1  0
  2 41  1  0
  3 42  1  0
  3 43  1  0
  5 44  1  0
  5 45  1  0
  8 46  1  0
  8 47  1  0
 10 48  1  0
 10 49  1  0
 10 50  1  0
 12 51  1  0
 18 52  1  0
 19 53  1  0
 20 54  1  0
 21 55  1  0
 22 56  1  0
 24 57  1  0
 26 58  1  0
 28 59  1  0
 30 60  1  0
 30 61  1  0
 34 62  1  0
 35 63  1  0
 36 64  1  0
 37 65  1  0
 38 66  1  0
M  CHG  4   2   1   7  -1  29   1  31  -1
M  END
>  <SMILES_raw>  (32) 
CSCC[C@@H](C(O)=O)NCC1=CN(C2=CC=CC([N+]([O-])=O)=C2)N=C1C3=CC=CC(OCC4=CC=CC=C4)=C3

>  <Protonation_Method>  (32) 
MolScrub

>  <Target_pH>  (32) 
7.4

$$$$
1-((3-(3-(benzyloxy)phenyl)-1-(3-nitrophenyl)-1H-pyrazol-4-yl)methyl)piperidin-2-carboxylic acid
     RDKit          3D

 66 70  0  0  0  0  0  0  0  0999 V2000
   -1.4726   -2.1152    1.6907 C   0  0  0  0  0  0  0  0  0  0  0  0
   -2.4643   -1.6333    0.5841 N   0  0  0  0  0  0  0  0  0  0  0  0
   -1.7163   -0.9361   -0.5294 C   0  0  0  0  0  0  0  0  0  0  0  0
   -3.4568   -2.6149    0.0696 C   0  0  0  0  0  0  0  0  0  0  0  0
   -1.0890   -0.9383    2.6463 C   0  0  0  0  0  0  0  0  0  0  0  0
   -2.1146   -3.1186    2.6544 C   0  0  0  0  0  0  0  0  0  0  0  0
   -0.0114   -1.0545    3.2702 O   0  0  0  0  0  0  0  0  0  0  0  0
   -1.9668   -0.0173    2.5901 O   0  0  0  0  0  0  0  0  0  0  0  0
   -2.9642   -4.1646    1.9599 C   0  0  0  0  0  0  0  0  0  0  0  0
   -4.0519   -3.4690    1.1676 C   0  0  0  0  0  0  0  0  0  0  0  0
   -1.6621    0.5415   -0.4851 C   0  0  0  0  0  0  0  0  0  0  0  0
   -2.6901    1.4316   -0.7431 C   0  0  0  0  0  0  0  0  0  0  0  0
   -0.5411    1.3767   -0.2096 C   0  0  0  0  0  0  0  0  0  0  0  0
   -2.1687    2.7045   -0.6402 N   0  0  0  0  0  0  0  0  0  0  0  0
   -0.8545    2.6703   -0.3362 N   0  0  0  0  0  0  0  0  0  0  0  0
    0.8173    0.9974    0.1569 C   0  0  0  0  0  0  0  0  0  0  0  0
   -2.8174    3.9502   -0.8837 C   0  0  0  0  0  0  0  0  0  0  0  0
    1.3698    1.4876    1.3471 C   0  0  0  0  0  0  0  0  0  0  0  0
    1.5831    0.1590   -0.6581 C   0  0  0  0  0  0  0  0  0  0  0  0
   -2.0821    5.1435   -0.7421 C   0  0  0  0  0  0  0  0  0  0  0  0
   -4.1565    4.0145   -1.2914 C   0  0  0  0  0  0  0  0  0  0  0  0
    2.6710    1.1496    1.7167 C   0  0  0  0  0  0  0  0  0  0  0  0
    2.8691   -0.2134   -0.2634 C   0  0  0  0  0  0  0  0  0  0  0  0
   -2.6695    6.3809   -1.0149 C   0  0  0  0  0  0  0  0  0  0  0  0
   -4.7390    5.2678   -1.5467 C   0  0  0  0  0  0  0  0  0  0  0  0
    3.4271    0.3102    0.9042 C   0  0  0  0  0  0  0  0  0  0  0  0
    3.5425   -1.0438   -1.1181 O   0  0  0  0  0  0  0  0  0  0  0  0
   -4.0034    6.4497   -1.4116 C   0  0  0  0  0  0  0  0  0  0  0  0
   -6.1331    5.3351   -2.0031 N   0  0  0  0  0  0  0  0  0  0  0  0
    4.2278   -2.1273   -0.4713 C   0  0  0  0  0  0  0  0  0  0  0  0
   -6.7113    6.4280   -1.9462 O   0  0  0  0  0  0  0  0  0  0  0  0
   -6.6472    4.2858   -2.4231 O   0  0  0  0  0  0  0  0  0  0  0  0
    5.6941   -2.1791   -0.8437 C   0  0  0  0  0  0  0  0  0  0  0  0
    6.4046   -1.0380   -1.2414 C   0  0  0  0  0  0  0  0  0  0  0  0
    6.3813   -3.3959   -0.7310 C   0  0  0  0  0  0  0  0  0  0  0  0
    7.7646   -1.1245   -1.5411 C   0  0  0  0  0  0  0  0  0  0  0  0
    7.7394   -3.4824   -1.0302 C   0  0  0  0  0  0  0  0  0  0  0  0
    8.4332   -2.3437   -1.4363 C   0  0  0  0  0  0  0  0  0  0  0  0
   -0.6093   -2.5567    1.1822 H   0  0  0  0  0  0  0  0  0  0  0  0
   -2.9267   -0.8654    1.1248 H   0  0  0  0  0  0  0  0  0  0  0  0
   -0.7307   -1.3966   -0.6209 H   0  0  0  0  0  0  0  0  0  0  0  0
   -2.2291   -1.2013   -1.4627 H   0  0  0  0  0  0  0  0  0  0  0  0
   -4.2533   -2.0511   -0.4210 H   0  0  0  0  0  0  0  0  0  0  0  0
   -2.9465   -3.2373   -0.6688 H   0  0  0  0  0  0  0  0  0  0  0  0
   -2.7374   -2.6079    3.4037 H   0  0  0  0  0  0  0  0  0  0  0  0
   -1.3197   -3.6231    3.2174 H   0  0  0  0  0  0  0  0  0  0  0  0
   -3.4108   -4.8320    2.7046 H   0  0  0  0  0  0  0  0  0  0  0  0
   -2.3411   -4.7844    1.3011 H   0  0  0  0  0  0  0  0  0  0  0  0
   -4.6646   -2.8478    1.8352 H   0  0  0  0  0  0  0  0  0  0  0  0
   -4.7202   -4.2156    0.7225 H   0  0  0  0  0  0  0  0  0  0  0  0
   -3.7248    1.2574   -0.9980 H   0  0  0  0  0  0  0  0  0  0  0  0
    0.7758    2.1233    2.0029 H   0  0  0  0  0  0  0  0  0  0  0  0
    1.1954   -0.2037   -1.6062 H   0  0  0  0  0  0  0  0  0  0  0  0
   -1.0367    5.1187   -0.4260 H   0  0  0  0  0  0  0  0  0  0  0  0
   -4.7478    3.1148   -1.4231 H   0  0  0  0  0  0  0  0  0  0  0  0
    3.0831    1.5376    2.6460 H   0  0  0  0  0  0  0  0  0  0  0  0
   -2.0795    7.2882   -0.9186 H   0  0  0  0  0  0  0  0  0  0  0  0
    4.4466    0.0800    1.1948 H   0  0  0  0  0  0  0  0  0  0  0  0
   -4.4500    7.4219   -1.6195 H   0  0  0  0  0  0  0  0  0  0  0  0
    3.7363   -3.0378   -0.8294 H   0  0  0  0  0  0  0  0  0  0  0  0
    4.1323   -2.1253    0.6202 H   0  0  0  0  0  0  0  0  0  0  0  0
    5.9044   -0.0738   -1.3171 H   0  0  0  0  0  0  0  0  0  0  0  0
    5.8568   -4.2887   -0.4035 H   0  0  0  0  0  0  0  0  0  0  0  0
    8.3047   -0.2329   -1.8498 H   0  0  0  0  0  0  0  0  0  0  0  0
    8.2579   -4.4354   -0.9380 H   0  0  0  0  0  0  0  0  0  0  0  0
    9.4941   -2.3989   -1.6696 H   0  0  0  0  0  0  0  0  0  0  0  0
  1  2  1  0
  2  3  1  0
  2  4  1  0
  1  5  1  0
  6  1  1  0
  5  7  2  0
  5  8  1  0
  9  6  1  0
 10  9  1  0
  4 10  1  0
  3 11  1  0
 11 12  2  0
 13 11  1  0
 12 14  1  0
 15 13  2  0
 13 16  1  0
 14 17  1  0
 14 15  1  0
 16 18  2  0
 19 16  1  0
 17 20  2  0
 21 17  1  0
 18 22  1  0
 23 19  2  0
 20 24  1  0
 25 21  2  0
 22 26  2  0
 26 23  1  0
 23 27  1  0
 24 28  2  0
 28 25  1  0
 25 29  1  0
 27 30  1  0
 29 31  1  0
 29 32  2  0
 30 33  1  0
 33 34  2  0
 35 33  1  0
 34 36  1  0
 37 35  2  0
 36 38  2  0
 38 37  1  0
  1 39  1  0
  2 40  1  0
  3 41  1  0
  3 42  1  0
  4 43  1  0
  4 44  1  0
  6 45  1  0
  6 46  1  0
  9 47  1  0
  9 48  1  0
 10 49  1  0
 10 50  1  0
 12 51  1  0
 18 52  1  0
 19 53  1  0
 20 54  1  0
 21 55  1  0
 22 56  1  0
 24 57  1  0
 26 58  1  0
 28 59  1  0
 30 60  1  0
 30 61  1  0
 34 62  1  0
 35 63  1  0
 36 64  1  0
 37 65  1  0
 38 66  1  0
M  CHG  4   2   1   8  -1  29   1  31  -1
M  END
>  <SMILES_raw>  (33) 
O=C(C1N(CC2=CN(C3=CC=CC([N+]([O-])=O)=C3)N=C2C4=CC=CC(OCC5=CC=CC=C5)=C4)CCCC1)O

>  <Protonation_Method>  (33) 
MolScrub

>  <Target_pH>  (33) 
7.4

$$$$
N-((3-(3-(benzyloxy)phenyl)-1-(3-nitrophenyl)-1H-pyrazol-4-yl)methyl)-L-threonin
     RDKit          3D

 63 66  0  0  0  0  0  0  0  0999 V2000
   -4.4599    2.4803    0.9662 C   0  0  2  0  0  0  0  0  0  0  0  0
   -3.2284    1.5456    0.9424 N   0  0  0  0  0  0  0  0  0  0  0  0
   -2.5278    1.4169   -0.3605 C   0  0  0  0  0  0  0  0  0  0  0  0
   -5.6617    1.8106    0.2454 C   0  0  0  0  0  0  0  0  0  0  0  0
   -4.0383    3.9010    0.5724 C   0  0  1  0  0  0  0  0  0  0  0  0
   -6.6196    2.5422   -0.0882 O   0  0  0  0  0  0  0  0  0  0  0  0
   -5.4652    0.5573    0.1155 O   0  0  0  0  0  0  0  0  0  0  0  0
   -5.1001    4.9643    0.8361 C   0  0  0  0  0  0  0  0  0  0  0  0
   -2.8475    4.2369    1.3206 O   0  0  0  0  0  0  0  0  0  0  0  0
   -1.9383    0.0605   -0.5325 C   0  0  0  0  0  0  0  0  0  0  0  0
   -2.5929   -1.1520   -0.4109 C   0  0  0  0  0  0  0  0  0  0  0  0
   -0.6080   -0.3000   -0.8829 C   0  0  0  0  0  0  0  0  0  0  0  0
   -1.6780   -2.1467   -0.6563 N   0  0  0  0  0  0  0  0  0  0  0  0
   -0.4494   -1.6283   -0.8762 N   0  0  0  0  0  0  0  0  0  0  0  0
    0.5181    0.5644   -1.2161 C   0  0  0  0  0  0  0  0  0  0  0  0
   -1.8925   -3.5528   -0.6999 C   0  0  0  0  0  0  0  0  0  0  0  0
    0.3970    1.5217   -2.2305 C   0  0  0  0  0  0  0  0  0  0  0  0
    1.7441    0.4048   -0.5475 C   0  0  0  0  0  0  0  0  0  0  0  0
   -3.1613   -4.1024   -0.4486 C   0  0  0  0  0  0  0  0  0  0  0  0
   -0.8215   -4.4017   -1.0315 C   0  0  0  0  0  0  0  0  0  0  0  0
    1.4851    2.3255   -2.5608 C   0  0  0  0  0  0  0  0  0  0  0  0
    2.8335    1.2108   -0.8769 C   0  0  0  0  0  0  0  0  0  0  0  0
   -3.3528   -5.4868   -0.5180 C   0  0  0  0  0  0  0  0  0  0  0  0
   -1.0331   -5.7848   -1.1142 C   0  0  0  0  0  0  0  0  0  0  0  0
    2.6940    2.1701   -1.8818 C   0  0  0  0  0  0  0  0  0  0  0  0
    4.0762    1.1626   -0.3074 O   0  0  0  0  0  0  0  0  0  0  0  0
   -2.2950   -6.3306   -0.8532 C   0  0  0  0  0  0  0  0  0  0  0  0
    0.0771   -6.6694   -1.4900 N   0  0  0  0  0  0  0  0  0  0  0  0
    4.2881    0.1951    0.7158 C   0  0  0  0  0  0  0  0  0  0  0  0
    1.1948   -6.1612   -1.6497 O   0  0  0  0  0  0  0  0  0  0  0  0
   -0.1715   -7.8760   -1.6318 O   0  0  0  0  0  0  0  0  0  0  0  0
    5.7163    0.3125    1.1890 C   0  0  0  0  0  0  0  0  0  0  0  0
    6.0286    1.0309    2.3510 C   0  0  0  0  0  0  0  0  0  0  0  0
    6.7559   -0.2712    0.4511 C   0  0  0  0  0  0  0  0  0  0  0  0
    7.3519    1.1440    2.7786 C   0  0  0  0  0  0  0  0  0  0  0  0
    8.0802   -0.1549    0.8796 C   0  0  0  0  0  0  0  0  0  0  0  0
    8.3769    0.5490    2.0460 C   0  0  0  0  0  0  0  0  0  0  0  0
   -4.7254    2.4883    2.0320 H   0  0  0  0  0  0  0  0  0  0  0  0
   -2.5809    1.7647    1.7002 H   0  0  0  0  0  0  0  0  0  0  0  0
   -3.6916    0.6319    1.1039 H   0  0  0  0  0  0  0  0  0  0  0  0
   -1.7601    2.1921   -0.3602 H   0  0  0  0  0  0  0  0  0  0  0  0
   -3.2249    1.6217   -1.1744 H   0  0  0  0  0  0  0  0  0  0  0  0
   -3.7593    3.9398   -0.4857 H   0  0  0  0  0  0  0  0  0  0  0  0
   -4.6607    5.9670    0.8419 H   0  0  0  0  0  0  0  0  0  0  0  0
   -5.5753    4.8156    1.8118 H   0  0  0  0  0  0  0  0  0  0  0  0
   -5.8806    4.9363    0.0713 H   0  0  0  0  0  0  0  0  0  0  0  0
   -3.1223    4.6051    2.1827 H   0  0  0  0  0  0  0  0  0  0  0  0
   -3.6334   -1.3666   -0.2039 H   0  0  0  0  0  0  0  0  0  0  0  0
   -0.5271    1.6266   -2.7951 H   0  0  0  0  0  0  0  0  0  0  0  0
    1.8208   -0.3649    0.2141 H   0  0  0  0  0  0  0  0  0  0  0  0
   -4.0206   -3.4880   -0.1931 H   0  0  0  0  0  0  0  0  0  0  0  0
    0.1637   -3.9867   -1.2438 H   0  0  0  0  0  0  0  0  0  0  0  0
    1.4033    3.0591   -3.3581 H   0  0  0  0  0  0  0  0  0  0  0  0
   -4.3448   -5.9073   -0.3409 H   0  0  0  0  0  0  0  0  0  0  0  0
    3.5446    2.7922   -2.1509 H   0  0  0  0  0  0  0  0  0  0  0  0
   -2.4732   -7.4038   -0.9180 H   0  0  0  0  0  0  0  0  0  0  0  0
    3.6080    0.3736    1.5573 H   0  0  0  0  0  0  0  0  0  0  0  0
    4.1177   -0.8195    0.3366 H   0  0  0  0  0  0  0  0  0  0  0  0
    5.2456    1.5132    2.9303 H   0  0  0  0  0  0  0  0  0  0  0  0
    6.5312   -0.8126   -0.4655 H   0  0  0  0  0  0  0  0  0  0  0  0
    7.5784    1.7019    3.6835 H   0  0  0  0  0  0  0  0  0  0  0  0
    8.8836   -0.6078    0.3040 H   0  0  0  0  0  0  0  0  0  0  0  0
    9.4082    0.6398    2.3758 H   0  0  0  0  0  0  0  0  0  0  0  0
  1  2  1  0
  2  3  1  0
  1  4  1  0
  5  1  1  0
  4  6  2  0
  4  7  1  0
  8  5  1  0
  5  9  1  0
  3 10  1  0
 10 11  2  0
 12 10  1  0
 11 13  1  0
 14 12  2  0
 12 15  1  0
 13 16  1  0
 13 14  1  0
 15 17  2  0
 18 15  1  0
 16 19  2  0
 20 16  1  0
 17 21  1  0
 22 18  2  0
 19 23  1  0
 24 20  2  0
 21 25  2  0
 25 22  1  0
 22 26  1  0
 23 27  2  0
 27 24  1  0
 24 28  1  0
 26 29  1  0
 28 30  1  0
 28 31  2  0
 29 32  1  0
 32 33  2  0
 34 32  1  0
 33 35  1  0
 36 34  2  0
 35 37  2  0
 37 36  1  0
  1 38  1  1
  2 39  1  0
  2 40  1  0
  3 41  1  0
  3 42  1  0
  5 43  1  6
  8 44  1  0
  8 45  1  0
  8 46  1  0
  9 47  1  0
 11 48  1  0
 17 49  1  0
 18 50  1  0
 19 51  1  0
 20 52  1  0
 21 53  1  0
 23 54  1  0
 25 55  1  0
 27 56  1  0
 29 57  1  0
 29 58  1  0
 33 59  1  0
 34 60  1  0
 35 61  1  0
 36 62  1  0
 37 63  1  0
M  CHG  4   2   1   7  -1  28   1  30  -1
M  END
>  <SMILES_raw>  (34) 
C[C@@H](O)[C@@H](C(O)=O)NCC1=CN(C2=CC=CC([N+]([O-])=O)=C2)N=C1C3=CC=CC(OCC4=CC=CC=C4)=C3

>  <Protonation_Method>  (34) 
MolScrub

>  <Target_pH>  (34) 
7.4

$$$$
N-((3-(3-(benzyloxy)phenyl)-1-(3-nitrophenyl)-1H-pyrazol-4-yl)methyl)-L-valin
     RDKit          3D

 65 68  0  0  0  0  0  0  0  0999 V2000
   -2.3612   -2.6832   -1.1691 C   0  0  2  0  0  0  0  0  0  0  0  0
   -2.2574   -1.2212   -0.6871 N   0  0  0  0  0  0  0  0  0  0  0  0
   -0.9700   -0.5647   -1.0147 C   0  0  0  0  0  0  0  0  0  0  0  0
   -2.9047   -2.6550   -2.6405 C   0  0  0  0  0  0  0  0  0  0  0  0
   -3.2609   -3.4553   -0.1839 C   0  0  0  0  0  0  0  0  0  0  0  0
   -2.7324   -3.6701   -3.3435 O   0  0  0  0  0  0  0  0  0  0  0  0
   -3.3900   -1.4994   -2.8880 O   0  0  0  0  0  0  0  0  0  0  0  0
   -4.7258   -2.9962   -0.2137 C   0  0  0  0  0  0  0  0  0  0  0  0
   -3.1888   -4.9633   -0.4338 C   0  0  0  0  0  0  0  0  0  0  0  0
   -1.0103    0.9002   -0.7680 C   0  0  0  0  0  0  0  0  0  0  0  0
   -2.0396    1.7859   -1.0380 C   0  0  0  0  0  0  0  0  0  0  0  0
    0.0437    1.7291   -0.2910 C   0  0  0  0  0  0  0  0  0  0  0  0
   -1.5962    3.0481   -0.7083 N   0  0  0  0  0  0  0  0  0  0  0  0
   -0.3267    3.0116   -0.2446 N   0  0  0  0  0  0  0  0  0  0  0  0
    1.3995    1.3420    0.0744 C   0  0  0  0  0  0  0  0  0  0  0  0
   -2.2924    4.2858   -0.8046 C   0  0  0  0  0  0  0  0  0  0  0  0
    2.4835    1.8702   -0.6318 C   0  0  0  0  0  0  0  0  0  0  0  0
    1.6312    0.4316    1.1114 C   0  0  0  0  0  0  0  0  0  0  0  0
   -3.6105    4.3446   -1.2852 C   0  0  0  0  0  0  0  0  0  0  0  0
   -1.6467    5.4690   -0.4020 C   0  0  0  0  0  0  0  0  0  0  0  0
    3.7804    1.4686   -0.3186 C   0  0  0  0  0  0  0  0  0  0  0  0
    2.9304    0.0179    1.4223 C   0  0  0  0  0  0  0  0  0  0  0  0
   -4.2765    5.5736   -1.3640 C   0  0  0  0  0  0  0  0  0  0  0  0
   -2.3273    6.6917   -0.4804 C   0  0  0  0  0  0  0  0  0  0  0  0
    4.0032    0.5393    0.7013 C   0  0  0  0  0  0  0  0  0  0  0  0
    3.0007   -0.9067    2.4288 O   0  0  0  0  0  0  0  0  0  0  0  0
   -3.6397    6.7491   -0.9681 C   0  0  0  0  0  0  0  0  0  0  0  0
   -1.6676    7.9244   -0.0231 N   0  0  0  0  0  0  0  0  0  0  0  0
    4.2883   -1.3892    2.8304 C   0  0  0  0  0  0  0  0  0  0  0  0
   -2.3236    8.9755   -0.0593 O   0  0  0  0  0  0  0  0  0  0  0  0
   -0.4973    7.8417    0.3747 O   0  0  0  0  0  0  0  0  0  0  0  0
    4.8565   -2.4354    1.8971 C   0  0  0  0  0  0  0  0  0  0  0  0
    4.0244   -3.3668    1.2586 C   0  0  0  0  0  0  0  0  0  0  0  0
    6.2447   -2.5127    1.6926 C   0  0  0  0  0  0  0  0  0  0  0  0
    4.5654   -4.3343    0.4110 C   0  0  0  0  0  0  0  0  0  0  0  0
    6.7831   -3.4849    0.8493 C   0  0  0  0  0  0  0  0  0  0  0  0
    5.9418   -4.3946    0.2083 C   0  0  0  0  0  0  0  0  0  0  0  0
   -1.3415   -3.0850   -1.1506 H   0  0  0  0  0  0  0  0  0  0  0  0
   -2.9476   -0.7978   -1.3603 H   0  0  0  0  0  0  0  0  0  0  0  0
   -2.5920   -1.0572    0.2614 H   0  0  0  0  0  0  0  0  0  0  0  0
   -0.2120   -1.0606   -0.3982 H   0  0  0  0  0  0  0  0  0  0  0  0
   -0.7454   -0.7614   -2.0704 H   0  0  0  0  0  0  0  0  0  0  0  0
   -2.8786   -3.2763    0.8324 H   0  0  0  0  0  0  0  0  0  0  0  0
   -5.3147   -3.5067    0.5585 H   0  0  0  0  0  0  0  0  0  0  0  0
   -4.8155   -1.9215   -0.0282 H   0  0  0  0  0  0  0  0  0  0  0  0
   -5.1957   -3.2134   -1.1796 H   0  0  0  0  0  0  0  0  0  0  0  0
   -3.6560   -5.2405   -1.3848 H   0  0  0  0  0  0  0  0  0  0  0  0
   -2.1506   -5.3073   -0.4534 H   0  0  0  0  0  0  0  0  0  0  0  0
   -3.7095   -5.5103    0.3598 H   0  0  0  0  0  0  0  0  0  0  0  0
   -3.0181    1.6193   -1.4706 H   0  0  0  0  0  0  0  0  0  0  0  0
    2.3228    2.5947   -1.4275 H   0  0  0  0  0  0  0  0  0  0  0  0
    0.8037    0.0404    1.6968 H   0  0  0  0  0  0  0  0  0  0  0  0
   -4.1584    3.4576   -1.5876 H   0  0  0  0  0  0  0  0  0  0  0  0
   -0.6255    5.4362   -0.0214 H   0  0  0  0  0  0  0  0  0  0  0  0
    4.6227    1.8765   -0.8723 H   0  0  0  0  0  0  0  0  0  0  0  0
   -5.2987    5.6106   -1.7381 H   0  0  0  0  0  0  0  0  0  0  0  0
    5.0289    0.2467    0.8993 H   0  0  0  0  0  0  0  0  0  0  0  0
   -4.1786    7.6935   -1.0297 H   0  0  0  0  0  0  0  0  0  0  0  0
    4.1552   -1.8623    3.8113 H   0  0  0  0  0  0  0  0  0  0  0  0
    4.9788   -0.5525    2.9923 H   0  0  0  0  0  0  0  0  0  0  0  0
    2.9493   -3.3362    1.4106 H   0  0  0  0  0  0  0  0  0  0  0  0
    6.9145   -1.8098    2.1886 H   0  0  0  0  0  0  0  0  0  0  0  0
    3.9141   -5.0472   -0.0882 H   0  0  0  0  0  0  0  0  0  0  0  0
    7.8578   -3.5434    0.6925 H   0  0  0  0  0  0  0  0  0  0  0  0
    6.3592   -5.1532   -0.4479 H   0  0  0  0  0  0  0  0  0  0  0  0
  1  2  1  0
  2  3  1  0
  1  4  1  0
  5  1  1  0
  4  6  2  0
  4  7  1  0
  8  5  1  0
  5  9  1  0
  3 10  1  0
 10 11  2  0
 12 10  1  0
 11 13  1  0
 14 12  2  0
 12 15  1  0
 13 16  1  0
 13 14  1  0
 15 17  2  0
 18 15  1  0
 16 19  2  0
 20 16  1  0
 17 21  1  0
 22 18  2  0
 19 23  1  0
 24 20  2  0
 21 25  2  0
 25 22  1  0
 22 26  1  0
 23 27  2  0
 27 24  1  0
 24 28  1  0
 26 29  1  0
 28 30  1  0
 28 31  2  0
 29 32  1  0
 32 33  2  0
 34 32  1  0
 33 35  1  0
 36 34  2  0
 35 37  2  0
 37 36  1  0
  1 38  1  6
  2 39  1  0
  2 40  1  0
  3 41  1  0
  3 42  1  0
  5 43  1  0
  8 44  1  0
  8 45  1  0
  8 46  1  0
  9 47  1  0
  9 48  1  0
  9 49  1  0
 11 50  1  0
 17 51  1  0
 18 52  1  0
 19 53  1  0
 20 54  1  0
 21 55  1  0
 23 56  1  0
 25 57  1  0
 27 58  1  0
 29 59  1  0
 29 60  1  0
 33 61  1  0
 34 62  1  0
 35 63  1  0
 36 64  1  0
 37 65  1  0
M  CHG  4   2   1   7  -1  28   1  30  -1
M  END
>  <SMILES_raw>  (35) 
CC(C)[C@@H](C(O)=O)NCC1=CN(C2=CC=CC([N+]([O-])=O)=C2)N=C1C3=CC=CC(OCC4=CC=CC=C4)=C3

>  <Protonation_Method>  (35) 
MolScrub

>  <Target_pH>  (35) 
7.4

$$$$
N-((3-(3-(benzyloxy)phenyl)-1-(3-nitrophenyl)-1H-pyrazol-4-yl)methyl)-L-tryptophan
     RDKit          3D

 73 78  0  0  0  0  0  0  0  0999 V2000
   -3.2579   -0.4904   -1.7337 C   0  0  2  0  0  0  0  0  0  0  0  0
   -2.5030    0.7331   -2.3151 N   0  0  0  0  0  0  0  0  0  0  0  0
   -1.0264    0.5869   -2.3470 C   0  0  0  0  0  0  0  0  0  0  0  0
   -3.3396   -1.5450   -2.8766 C   0  0  0  0  0  0  0  0  0  0  0  0
   -4.6800   -0.0511   -1.3821 C   0  0  0  0  0  0  0  0  0  0  0  0
   -3.2885   -2.7509   -2.5710 O   0  0  0  0  0  0  0  0  0  0  0  0
   -3.2779   -0.9413   -4.0032 O   0  0  0  0  0  0  0  0  0  0  0  0
   -5.3360   -0.9114   -0.3459 C   0  0  0  0  0  0  0  0  0  0  0  0
   -5.1757   -0.8182    1.0244 C   0  0  0  0  0  0  0  0  0  0  0  0
   -6.2754   -1.9681   -0.5799 C   0  0  0  0  0  0  0  0  0  0  0  0
   -5.9762   -1.7609    1.6171 N   0  0  0  0  0  0  0  0  0  0  0  0
   -6.6740   -2.4618    0.6633 C   0  0  0  0  0  0  0  0  0  0  0  0
   -6.8302   -2.5487   -1.7388 C   0  0  0  0  0  0  0  0  0  0  0  0
   -7.6146   -3.4879    0.8091 C   0  0  0  0  0  0  0  0  0  0  0  0
   -7.7692   -3.5781   -1.6124 C   0  0  0  0  0  0  0  0  0  0  0  0
   -8.1591   -4.0371   -0.3562 C   0  0  0  0  0  0  0  0  0  0  0  0
   -0.3701    1.3433   -1.2493 C   0  0  0  0  0  0  0  0  0  0  0  0
   -0.4705    2.7029   -1.0068 C   0  0  0  0  0  0  0  0  0  0  0  0
    0.5626    0.8830   -0.2746 C   0  0  0  0  0  0  0  0  0  0  0  0
    0.3702    3.0019    0.0420 N   0  0  0  0  0  0  0  0  0  0  0  0
    0.9788    1.8910    0.5048 N   0  0  0  0  0  0  0  0  0  0  0  0
    1.1122   -0.4592   -0.0835 C   0  0  0  0  0  0  0  0  0  0  0  0
    0.6606    4.2790    0.6026 C   0  0  0  0  0  0  0  0  0  0  0  0
    0.2802   -1.5784    0.0168 C   0  0  0  0  0  0  0  0  0  0  0  0
    2.5049   -0.6291    0.0117 C   0  0  0  0  0  0  0  0  0  0  0  0
    0.1179    5.4529    0.0554 C   0  0  0  0  0  0  0  0  0  0  0  0
    1.5163    4.3666    1.7154 C   0  0  0  0  0  0  0  0  0  0  0  0
    0.8280   -2.8522    0.1712 C   0  0  0  0  0  0  0  0  0  0  0  0
    3.0565   -1.9018    0.1826 C   0  0  0  0  0  0  0  0  0  0  0  0
    0.4427    6.7013    0.5968 C   0  0  0  0  0  0  0  0  0  0  0  0
    1.8236    5.6236    2.2574 C   0  0  0  0  0  0  0  0  0  0  0  0
    2.2107   -3.0100    0.2466 C   0  0  0  0  0  0  0  0  0  0  0  0
    4.3879   -2.1955    0.2974 O   0  0  0  0  0  0  0  0  0  0  0  0
    1.3006    6.7919    1.6928 C   0  0  0  0  0  0  0  0  0  0  0  0
    2.7102    5.7205    3.4238 N   0  0  0  0  0  0  0  0  0  0  0  0
    5.2969   -1.0950    0.3278 C   0  0  0  0  0  0  0  0  0  0  0  0
    2.8655    6.8385    3.9342 O   0  0  0  0  0  0  0  0  0  0  0  0
    3.2505    4.6821    3.8283 O   0  0  0  0  0  0  0  0  0  0  0  0
    6.6948   -1.6275    0.5350 C   0  0  0  0  0  0  0  0  0  0  0  0
    7.2913   -2.4483   -0.4331 C   0  0  0  0  0  0  0  0  0  0  0  0
    7.4188   -1.3102    1.6934 C   0  0  0  0  0  0  0  0  0  0  0  0
    8.5855   -2.9363   -0.2488 C   0  0  0  0  0  0  0  0  0  0  0  0
    8.7132   -1.7982    1.8752 C   0  0  0  0  0  0  0  0  0  0  0  0
    9.2967   -2.6104    0.9042 C   0  0  0  0  0  0  0  0  0  0  0  0
   -2.6958   -0.8365   -0.8664 H   0  0  0  0  0  0  0  0  0  0  0  0
   -2.8002    0.6175   -3.3173 H   0  0  0  0  0  0  0  0  0  0  0  0
   -2.8404    1.6370   -1.9879 H   0  0  0  0  0  0  0  0  0  0  0  0
   -0.7724   -0.4752   -2.3599 H   0  0  0  0  0  0  0  0  0  0  0  0
   -0.7042    1.0081   -3.3066 H   0  0  0  0  0  0  0  0  0  0  0  0
   -4.6638    0.9738   -0.9823 H   0  0  0  0  0  0  0  0  0  0  0  0
   -5.3135   -0.0090   -2.2771 H   0  0  0  0  0  0  0  0  0  0  0  0
   -4.5677   -0.1622    1.6336 H   0  0  0  0  0  0  0  0  0  0  0  0
   -6.0603   -1.9210    2.6119 H   0  0  0  0  0  0  0  0  0  0  0  0
   -6.5204   -2.2204   -2.7290 H   0  0  0  0  0  0  0  0  0  0  0  0
   -7.9157   -3.8554    1.7859 H   0  0  0  0  0  0  0  0  0  0  0  0
   -8.1866   -4.0290   -2.5088 H   0  0  0  0  0  0  0  0  0  0  0  0
   -8.8914   -4.8341   -0.2772 H   0  0  0  0  0  0  0  0  0  0  0  0
   -1.0351    3.4675   -1.5167 H   0  0  0  0  0  0  0  0  0  0  0  0
   -0.8000   -1.4862   -0.0007 H   0  0  0  0  0  0  0  0  0  0  0  0
    3.1356    0.2524   -0.0463 H   0  0  0  0  0  0  0  0  0  0  0  0
   -0.5557    5.4396   -0.7996 H   0  0  0  0  0  0  0  0  0  0  0  0
    1.9226    3.4636    2.1673 H   0  0  0  0  0  0  0  0  0  0  0  0
    0.1771   -3.7217    0.2391 H   0  0  0  0  0  0  0  0  0  0  0  0
    0.0355    7.6078    0.1547 H   0  0  0  0  0  0  0  0  0  0  0  0
    2.6324   -4.0051    0.3691 H   0  0  0  0  0  0  0  0  0  0  0  0
    1.5429    7.7745    2.0967 H   0  0  0  0  0  0  0  0  0  0  0  0
    5.0366   -0.4072    1.1427 H   0  0  0  0  0  0  0  0  0  0  0  0
    5.2697   -0.5485   -0.6239 H   0  0  0  0  0  0  0  0  0  0  0  0
    6.7406   -2.7185   -1.3314 H   0  0  0  0  0  0  0  0  0  0  0  0
    6.9762   -0.6847    2.4660 H   0  0  0  0  0  0  0  0  0  0  0  0
    9.0345   -3.5786   -1.0004 H   0  0  0  0  0  0  0  0  0  0  0  0
    9.2644   -1.5505    2.7786 H   0  0  0  0  0  0  0  0  0  0  0  0
   10.3022   -2.9938    1.0500 H   0  0  0  0  0  0  0  0  0  0  0  0
  1  2  1  0
  2  3  1  0
  1  4  1  0
  1  5  1  0
  4  6  2  0
  4  7  1  0
  5  8  1  0
  8  9  2  0
 10  8  1  0
  9 11  1  0
 12 10  2  0
 10 13  1  0
 11 12  1  0
 14 12  1  0
 13 15  2  0
 16 14  2  0
 15 16  1  0
  3 17  1  0
 17 18  2  0
 19 17  1  0
 18 20  1  0
 21 19  2  0
 19 22  1  0
 20 23  1  0
 20 21  1  0
 22 24  2  0
 25 22  1  0
 23 26  2  0
 27 23  1  0
 24 28  1  0
 29 25  2  0
 26 30  1  0
 31 27  2  0
 28 32  2  0
 32 29  1  0
 29 33  1  0
 30 34  2  0
 34 31  1  0
 31 35  1  0
 33 36  1  0
 35 37  1  0
 35 38  2  0
 36 39  1  0
 39 40  2  0
 41 39  1  0
 40 42  1  0
 43 41  2  0
 42 44  2  0
 44 43  1  0
  1 45  1  1
  2 46  1  0
  2 47  1  0
  3 48  1  0
  3 49  1  0
  5 50  1  0
  5 51  1  0
  9 52  1  0
 11 53  1  0
 13 54  1  0
 14 55  1  0
 15 56  1  0
 16 57  1  0
 18 58  1  0
 24 59  1  0
 25 60  1  0
 26 61  1  0
 27 62  1  0
 28 63  1  0
 30 64  1  0
 32 65  1  0
 34 66  1  0
 36 67  1  0
 36 68  1  0
 40 69  1  0
 41 70  1  0
 42 71  1  0
 43 72  1  0
 44 73  1  0
M  CHG  4   2   1   7  -1  35   1  37  -1
M  END
>  <SMILES_raw>  (36) 
O=C(O)[C@H](CC1=CNC2=C1C=CC=C2)NCC3=CN(C4=CC=CC([N+]([O-])=O)=C4)N=C3C5=CC=CC(OCC6=CC=CC=C6)=C5

>  <Protonation_Method>  (36) 
MolScrub

>  <Target_pH>  (36) 
7.4

$$$$
N-((3-(3-(benzyloxy)phenyl)-1-(3-nitrophenyl)-1H-pyrazol-4-yl)methyl)-L-tyrosin
     RDKit          3D

 70 74  0  0  0  0  0  0  0  0999 V2000
   -4.2652   -0.7181    0.4431 C   0  0  2  0  0  0  0  0  0  0  0  0
   -2.9609   -0.0880   -0.1004 N   0  0  0  0  0  0  0  0  0  0  0  0
   -1.7142   -0.4500    0.6199 C   0  0  0  0  0  0  0  0  0  0  0  0
   -4.6203    0.0299    1.7714 C   0  0  0  0  0  0  0  0  0  0  0  0
   -4.1478   -2.2418    0.4970 C   0  0  0  0  0  0  0  0  0  0  0  0
   -4.1387    1.2138    1.7250 O   0  0  0  0  0  0  0  0  0  0  0  0
   -5.1776   -0.6078    2.6874 O   0  0  0  0  0  0  0  0  0  0  0  0
   -5.4240   -2.9398    0.0839 C   0  0  0  0  0  0  0  0  0  0  0  0
   -5.6126   -3.3652   -1.2407 C   0  0  0  0  0  0  0  0  0  0  0  0
   -6.4459   -3.1559    1.0180 C   0  0  0  0  0  0  0  0  0  0  0  0
   -6.7973   -4.0021   -1.6203 C   0  0  0  0  0  0  0  0  0  0  0  0
   -7.6281   -3.7924    0.6384 C   0  0  0  0  0  0  0  0  0  0  0  0
   -7.7957   -4.2119   -0.6749 C   0  0  0  0  0  0  0  0  0  0  0  0
   -8.9650   -4.8324   -1.0007 O   0  0  0  0  0  0  0  0  0  0  0  0
   -0.6618    0.5753    0.4169 C   0  0  0  0  0  0  0  0  0  0  0  0
   -0.6737    1.8760    0.8892 C   0  0  0  0  0  0  0  0  0  0  0  0
    0.5942    0.4494   -0.2326 C   0  0  0  0  0  0  0  0  0  0  0  0
    0.5277    2.4510    0.5486 N   0  0  0  0  0  0  0  0  0  0  0  0
    1.2916    1.5870   -0.1541 N   0  0  0  0  0  0  0  0  0  0  0  0
    1.1722   -0.7161   -0.8931 C   0  0  0  0  0  0  0  0  0  0  0  0
    1.0053    3.7565    0.8533 C   0  0  0  0  0  0  0  0  0  0  0  0
    0.4940   -1.3723   -1.9263 C   0  0  0  0  0  0  0  0  0  0  0  0
    2.4416   -1.1673   -0.4975 C   0  0  0  0  0  0  0  0  0  0  0  0
    0.2270    4.6595    1.5935 C   0  0  0  0  0  0  0  0  0  0  0  0
    2.2842    4.1411    0.4120 C   0  0  0  0  0  0  0  0  0  0  0  0
    1.0752   -2.4779   -2.5463 C   0  0  0  0  0  0  0  0  0  0  0  0
    3.0299   -2.2677   -1.1195 C   0  0  0  0  0  0  0  0  0  0  0  0
    0.7192    5.9348    1.8903 C   0  0  0  0  0  0  0  0  0  0  0  0
    2.7671    5.4212    0.7167 C   0  0  0  0  0  0  0  0  0  0  0  0
    2.3361   -2.9202   -2.1419 C   0  0  0  0  0  0  0  0  0  0  0  0
    4.2685   -2.7821   -0.8504 O   0  0  0  0  0  0  0  0  0  0  0  0
    1.9869    6.3213    1.4531 C   0  0  0  0  0  0  0  0  0  0  0  0
    4.1049    5.8252    0.2622 N   0  0  0  0  0  0  0  0  0  0  0  0
    5.0035   -2.2571    0.2621 C   0  0  0  0  0  0  0  0  0  0  0  0
    4.5288    6.9298    0.6327 O   0  0  0  0  0  0  0  0  0  0  0  0
    4.7332    5.0411   -0.4631 O   0  0  0  0  0  0  0  0  0  0  0  0
    5.6718   -0.9282   -0.0142 C   0  0  0  0  0  0  0  0  0  0  0  0
    6.1962   -0.6270   -1.2789 C   0  0  0  0  0  0  0  0  0  0  0  0
    5.7998    0.0184    1.0145 C   0  0  0  0  0  0  0  0  0  0  0  0
    6.7995    0.6083   -1.5200 C   0  0  0  0  0  0  0  0  0  0  0  0
    6.4025    1.2535    0.7709 C   0  0  0  0  0  0  0  0  0  0  0  0
    6.8967    1.5501   -0.4974 C   0  0  0  0  0  0  0  0  0  0  0  0
   -5.0192   -0.4109   -0.2926 H   0  0  0  0  0  0  0  0  0  0  0  0
   -3.1439    0.8956    0.2106 H   0  0  0  0  0  0  0  0  0  0  0  0
   -2.8951   -0.0769   -1.1166 H   0  0  0  0  0  0  0  0  0  0  0  0
   -1.4066   -1.4333    0.2554 H   0  0  0  0  0  0  0  0  0  0  0  0
   -1.9427   -0.5377    1.6877 H   0  0  0  0  0  0  0  0  0  0  0  0
   -3.8573   -2.5815    1.4991 H   0  0  0  0  0  0  0  0  0  0  0  0
   -3.3556   -2.5959   -0.1747 H   0  0  0  0  0  0  0  0  0  0  0  0
   -4.8376   -3.2123   -1.9876 H   0  0  0  0  0  0  0  0  0  0  0  0
   -6.3330   -2.8261    2.0514 H   0  0  0  0  0  0  0  0  0  0  0  0
   -6.9239   -4.3265   -2.6488 H   0  0  0  0  0  0  0  0  0  0  0  0
   -8.4150   -3.9564    1.3696 H   0  0  0  0  0  0  0  0  0  0  0  0
   -8.9413   -5.0715   -1.9411 H   0  0  0  0  0  0  0  0  0  0  0  0
   -1.4249    2.4024    1.4639 H   0  0  0  0  0  0  0  0  0  0  0  0
   -0.4665   -1.0130   -2.2822 H   0  0  0  0  0  0  0  0  0  0  0  0
    2.9563   -0.6168    0.2840 H   0  0  0  0  0  0  0  0  0  0  0  0
   -0.7649    4.4050    1.9599 H   0  0  0  0  0  0  0  0  0  0  0  0
    2.8996    3.4471   -0.1617 H   0  0  0  0  0  0  0  0  0  0  0  0
    0.5622   -2.9855   -3.3595 H   0  0  0  0  0  0  0  0  0  0  0  0
    0.1101    6.6295    2.4665 H   0  0  0  0  0  0  0  0  0  0  0  0
    2.7926   -3.7729   -2.6401 H   0  0  0  0  0  0  0  0  0  0  0  0
    2.3496    7.3185    1.6961 H   0  0  0  0  0  0  0  0  0  0  0  0
    4.3651   -2.2212    1.1539 H   0  0  0  0  0  0  0  0  0  0  0  0
    5.7957   -2.9821    0.4836 H   0  0  0  0  0  0  0  0  0  0  0  0
    6.1221   -1.3492   -2.0895 H   0  0  0  0  0  0  0  0  0  0  0  0
    5.4183   -0.1941    2.0106 H   0  0  0  0  0  0  0  0  0  0  0  0
    7.1874    0.8394   -2.5087 H   0  0  0  0  0  0  0  0  0  0  0  0
    6.4842    1.9879    1.5679 H   0  0  0  0  0  0  0  0  0  0  0  0
    7.3554    2.5168   -0.6898 H   0  0  0  0  0  0  0  0  0  0  0  0
  1  2  1  0
  2  3  1  0
  1  4  1  0
  5  1  1  0
  4  6  2  0
  4  7  1  0
  8  5  1  0
  9  8  2  0
  8 10  1  0
 11  9  1  0
 10 12  2  0
 13 11  2  0
 12 13  1  0
 14 13  1  0
  3 15  1  0
 15 16  2  0
 17 15  1  0
 16 18  1  0
 19 17  2  0
 17 20  1  0
 18 21  1  0
 18 19  1  0
 20 22  2  0
 23 20  1  0
 21 24  2  0
 25 21  1  0
 22 26  1  0
 27 23  2  0
 24 28  1  0
 29 25  2  0
 26 30  2  0
 30 27  1  0
 27 31  1  0
 28 32  2  0
 32 29  1  0
 29 33  1  0
 31 34  1  0
 33 35  1  0
 33 36  2  0
 34 37  1  0
 37 38  2  0
 39 37  1  0
 38 40  1  0
 41 39  2  0
 40 42  2  0
 42 41  1  0
  1 43  1  6
  2 44  1  0
  2 45  1  0
  3 46  1  0
  3 47  1  0
  5 48  1  0
  5 49  1  0
  9 50  1  0
 10 51  1  0
 11 52  1  0
 12 53  1  0
 14 54  1  0
 16 55  1  0
 22 56  1  0
 23 57  1  0
 24 58  1  0
 25 59  1  0
 26 60  1  0
 28 61  1  0
 30 62  1  0
 32 63  1  0
 34 64  1  0
 34 65  1  0
 38 66  1  0
 39 67  1  0
 40 68  1  0
 41 69  1  0
 42 70  1  0
M  CHG  4   2   1   7  -1  33   1  35  -1
M  END
>  <SMILES_raw>  (37) 
OC1=CC=C(C=C1)C[C@@H](C(O)=O)NCC2=CN(C3=CC=CC([N+]([O-])=O)=C3)N=C2C4=CC=CC(OCC5=CC=CC=C5)=C4

>  <Protonation_Method>  (37) 
MolScrub

>  <Target_pH>  (37) 
7.4

$$$$
N-((3-(3-((4-chlorobenzyl)oxy)phenyl)-1-(3-nitrophenyl)-1H-pyrazol-4-yl)methyl)-L-alanin
     RDKit          3D

 59 62  0  0  0  0  0  0  0  0999 V2000
   -3.7210   -4.0157    1.4226 C   0  0  2  0  0  0  0  0  0  0  0  0
   -3.5802   -2.5436    1.0252 N   0  0  0  0  0  0  0  0  0  0  0  0
   -2.3323   -1.9020    1.4871 C   0  0  0  0  0  0  0  0  0  0  0  0
   -3.1377   -4.9087    0.2875 C   0  0  0  0  0  0  0  0  0  0  0  0
   -5.1998   -4.3247    1.5746 C   0  0  0  0  0  0  0  0  0  0  0  0
   -2.8913   -4.1881   -0.7360 O   0  0  0  0  0  0  0  0  0  0  0  0
   -2.9642   -6.1197    0.5374 O   0  0  0  0  0  0  0  0  0  0  0  0
   -2.1642   -0.5552    0.8846 C   0  0  0  0  0  0  0  0  0  0  0  0
   -2.9824    0.5496    1.0426 C   0  0  0  0  0  0  0  0  0  0  0  0
   -1.1087   -0.0936    0.0476 C   0  0  0  0  0  0  0  0  0  0  0  0
   -2.4160    1.5870    0.3339 N   0  0  0  0  0  0  0  0  0  0  0  0
   -1.2642    1.2013   -0.2489 N   0  0  0  0  0  0  0  0  0  0  0  0
    0.0514   -0.8274   -0.4485 C   0  0  0  0  0  0  0  0  0  0  0  0
   -2.8943    2.9199    0.1815 C   0  0  0  0  0  0  0  0  0  0  0  0
   -0.0990   -2.0329   -1.1401 C   0  0  0  0  0  0  0  0  0  0  0  0
    1.3399   -0.3188   -0.2368 C   0  0  0  0  0  0  0  0  0  0  0  0
   -4.0925    3.3364    0.7808 C   0  0  0  0  0  0  0  0  0  0  0  0
   -2.1508    3.8325   -0.5875 C   0  0  0  0  0  0  0  0  0  0  0  0
    1.0253   -2.7290   -1.5868 C   0  0  0  0  0  0  0  0  0  0  0  0
    2.4686   -1.0074   -0.6917 C   0  0  0  0  0  0  0  0  0  0  0  0
   -4.5447    4.6500    0.6155 C   0  0  0  0  0  0  0  0  0  0  0  0
   -2.6134    5.1460   -0.7464 C   0  0  0  0  0  0  0  0  0  0  0  0
    2.3068   -2.2203   -1.3613 C   0  0  0  0  0  0  0  0  0  0  0  0
    3.6588   -0.3976   -0.4071 O   0  0  0  0  0  0  0  0  0  0  0  0
   -3.8100    5.5577   -0.1469 C   0  0  0  0  0  0  0  0  0  0  0  0
   -1.8370    6.1038   -1.5444 N   0  0  0  0  0  0  0  0  0  0  0  0
    4.8308   -0.9579   -0.9957 C   0  0  0  0  0  0  0  0  0  0  0  0
   -0.8061    5.6964   -2.0958 O   0  0  0  0  0  0  0  0  0  0  0  0
   -2.2615    7.2663   -1.6184 O   0  0  0  0  0  0  0  0  0  0  0  0
    5.9972   -0.0599   -0.6564 C   0  0  0  0  0  0  0  0  0  0  0  0
    6.9799   -0.4708    0.2556 C   0  0  0  0  0  0  0  0  0  0  0  0
    6.1001    1.2117   -1.2420 C   0  0  0  0  0  0  0  0  0  0  0  0
    8.0516    0.3699    0.5673 C   0  0  0  0  0  0  0  0  0  0  0  0
    7.1709    2.0521   -0.9299 C   0  0  0  0  0  0  0  0  0  0  0  0
    8.1425    1.6268   -0.0272 C   0  0  0  0  0  0  0  0  0  0  0  0
    9.4620    2.6613    0.3598 Cl  0  0  0  0  0  0  0  0  0  0  0  0
   -3.1864   -4.1598    2.3673 H   0  0  0  0  0  0  0  0  0  0  0  0
   -3.4603   -2.6650   -0.0106 H   0  0  0  0  0  0  0  0  0  0  0  0
   -4.4225   -1.9900    1.1710 H   0  0  0  0  0  0  0  0  0  0  0  0
   -1.5008   -2.5737    1.2558 H   0  0  0  0  0  0  0  0  0  0  0  0
   -2.4085   -1.8155    2.5765 H   0  0  0  0  0  0  0  0  0  0  0  0
   -5.7371   -4.1940    0.6284 H   0  0  0  0  0  0  0  0  0  0  0  0
   -5.3514   -5.3609    1.8991 H   0  0  0  0  0  0  0  0  0  0  0  0
   -5.6614   -3.6710    2.3225 H   0  0  0  0  0  0  0  0  0  0  0  0
   -3.8940    0.6772    1.6051 H   0  0  0  0  0  0  0  0  0  0  0  0
   -1.0823   -2.4456   -1.3572 H   0  0  0  0  0  0  0  0  0  0  0  0
    1.4727    0.6290    0.2818 H   0  0  0  0  0  0  0  0  0  0  0  0
   -4.7002    2.6700    1.3859 H   0  0  0  0  0  0  0  0  0  0  0  0
   -1.2176    3.5225   -1.0570 H   0  0  0  0  0  0  0  0  0  0  0  0
    0.8962   -3.6712   -2.1166 H   0  0  0  0  0  0  0  0  0  0  0  0
   -5.4741    4.9684    1.0846 H   0  0  0  0  0  0  0  0  0  0  0  0
    3.1519   -2.7969   -1.7233 H   0  0  0  0  0  0  0  0  0  0  0  0
   -4.1800    6.5750   -0.2624 H   0  0  0  0  0  0  0  0  0  0  0  0
    4.7359   -1.0119   -2.0888 H   0  0  0  0  0  0  0  0  0  0  0  0
    5.0086   -1.9658   -0.5994 H   0  0  0  0  0  0  0  0  0  0  0  0
    6.9161   -1.4457    0.7337 H   0  0  0  0  0  0  0  0  0  0  0  0
    5.3374    1.5543   -1.9389 H   0  0  0  0  0  0  0  0  0  0  0  0
    8.8073    0.0403    1.2758 H   0  0  0  0  0  0  0  0  0  0  0  0
    7.2363    3.0348   -1.3888 H   0  0  0  0  0  0  0  0  0  0  0  0
  1  2  1  0
  2  3  1  0
  1  4  1  0
  5  1  1  0
  4  6  2  0
  4  7  1  0
  3  8  1  0
  8  9  2  0
 10  8  1  0
  9 11  1  0
 12 10  2  0
 10 13  1  0
 11 14  1  0
 11 12  1  0
 13 15  2  0
 16 13  1  0
 14 17  2  0
 18 14  1  0
 15 19  1  0
 20 16  2  0
 17 21  1  0
 22 18  2  0
 19 23  2  0
 23 20  1  0
 20 24  1  0
 21 25  2  0
 25 22  1  0
 22 26  1  0
 24 27  1  0
 26 28  1  0
 26 29  2  0
 27 30  1  0
 30 31  2  0
 32 30  1  0
 31 33  1  0
 34 32  2  0
 33 35  2  0
 35 34  1  0
 35 36  1  0
  1 37  1  1
  2 38  1  0
  2 39  1  0
  3 40  1  0
  3 41  1  0
  5 42  1  0
  5 43  1  0
  5 44  1  0
  9 45  1  0
 15 46  1  0
 16 47  1  0
 17 48  1  0
 18 49  1  0
 19 50  1  0
 21 51  1  0
 23 52  1  0
 25 53  1  0
 27 54  1  0
 27 55  1  0
 31 56  1  0
 32 57  1  0
 33 58  1  0
 34 59  1  0
M  CHG  4   2   1   7  -1  26   1  28  -1
M  END
>  <SMILES_raw>  (38) 
C[C@@H](C(O)=O)NCC1=CN(C2=CC=CC([N+]([O-])=O)=C2)N=C1C3=CC=CC(OCC4=CC=C(Cl)C=C4)=C3

>  <Protonation_Method>  (38) 
MolScrub

>  <Target_pH>  (38) 
7.4

$$$$
N-((3-(3-((4-chlorobenzyl)oxy)phenyl)-1-(3-nitrophenyl)-1H-pyrazol-4-yl)methyl)-L-aspartic acid
     RDKit          3D

 61 64  0  0  0  0  0  0  0  0999 V2000
   -1.3155    2.4619    0.8496 C   0  0  2  0  0  0  0  0  0  0  0  0
   -0.4626    1.4975    1.6680 N   0  0  0  0  0  0  0  0  0  0  0  0
   -1.0513    0.3271    2.2868 C   0  0  0  0  0  0  0  0  0  0  0  0
   -0.4619    3.0011   -0.3470 C   0  0  0  0  0  0  0  0  0  0  0  0
   -2.0083    3.4782    1.7428 C   0  0  0  0  0  0  0  0  0  0  0  0
   -0.9454    3.9132   -1.0557 O   0  0  0  0  0  0  0  0  0  0  0  0
    0.6142    2.3186   -0.4736 O   0  0  0  0  0  0  0  0  0  0  0  0
   -1.1394    4.0896    2.8328 C   0  0  0  0  0  0  0  0  0  0  0  0
   -0.1569    3.3619    3.1842 O   0  0  0  0  0  0  0  0  0  0  0  0
   -1.5474    5.1700    3.3242 O   0  0  0  0  0  0  0  0  0  0  0  0
   -1.5182   -0.7090    1.3293 C   0  0  0  0  0  0  0  0  0  0  0  0
   -2.8109   -0.9420    0.8972 C   0  0  0  0  0  0  0  0  0  0  0  0
   -0.7467   -1.6987    0.6630 C   0  0  0  0  0  0  0  0  0  0  0  0
   -2.7692   -2.0057    0.0260 N   0  0  0  0  0  0  0  0  0  0  0  0
   -1.5169   -2.5058   -0.0744 N   0  0  0  0  0  0  0  0  0  0  0  0
    0.6913   -1.9117    0.7340 C   0  0  0  0  0  0  0  0  0  0  0  0
   -3.8441   -2.5969   -0.6987 C   0  0  0  0  0  0  0  0  0  0  0  0
    1.1969   -3.0126    1.4348 C   0  0  0  0  0  0  0  0  0  0  0  0
    1.5690   -1.0215    0.0976 C   0  0  0  0  0  0  0  0  0  0  0  0
   -3.5762   -3.6711   -1.5658 C   0  0  0  0  0  0  0  0  0  0  0  0
   -5.1590   -2.1294   -0.5674 C   0  0  0  0  0  0  0  0  0  0  0  0
    2.5732   -3.2155    1.5130 C   0  0  0  0  0  0  0  0  0  0  0  0
    2.9475   -1.2142    0.1898 C   0  0  0  0  0  0  0  0  0  0  0  0
   -4.6032   -4.2726   -2.2972 C   0  0  0  0  0  0  0  0  0  0  0  0
   -6.1849   -2.7455   -1.3035 C   0  0  0  0  0  0  0  0  0  0  0  0
    3.4417   -2.3173    0.8919 C   0  0  0  0  0  0  0  0  0  0  0  0
    3.9051   -0.4221   -0.3786 O   0  0  0  0  0  0  0  0  0  0  0  0
   -5.9121   -3.8130   -2.1693 C   0  0  0  0  0  0  0  0  0  0  0  0
   -7.5682   -2.2723   -1.1578 N   0  0  0  0  0  0  0  0  0  0  0  0
    3.5043    0.8955   -0.7727 C   0  0  0  0  0  0  0  0  0  0  0  0
   -8.4340   -2.7880   -1.8792 O   0  0  0  0  0  0  0  0  0  0  0  0
   -7.7906   -1.3936   -0.3131 O   0  0  0  0  0  0  0  0  0  0  0  0
    4.7589    1.6215   -1.2010 C   0  0  0  0  0  0  0  0  0  0  0  0
    5.4938    2.3786   -0.2760 C   0  0  0  0  0  0  0  0  0  0  0  0
    5.2288    1.5090   -2.5185 C   0  0  0  0  0  0  0  0  0  0  0  0
    6.6705    3.0228   -0.6646 C   0  0  0  0  0  0  0  0  0  0  0  0
    6.4050    2.1532   -2.9077 C   0  0  0  0  0  0  0  0  0  0  0  0
    7.1208    2.9066   -1.9785 C   0  0  0  0  0  0  0  0  0  0  0  0
    8.5762    3.6929   -2.4566 Cl  0  0  0  0  0  0  0  0  0  0  0  0
   -2.0840    1.8486    0.3643 H   0  0  0  0  0  0  0  0  0  0  0  0
    0.3370    1.3220    1.0291 H   0  0  0  0  0  0  0  0  0  0  0  0
   -0.0293    2.1176    2.4023 H   0  0  0  0  0  0  0  0  0  0  0  0
   -0.2869   -0.0927    2.9501 H   0  0  0  0  0  0  0  0  0  0  0  0
   -1.8754    0.6708    2.9222 H   0  0  0  0  0  0  0  0  0  0  0  0
   -2.8514    2.9941    2.2523 H   0  0  0  0  0  0  0  0  0  0  0  0
   -2.4294    4.2877    1.1354 H   0  0  0  0  0  0  0  0  0  0  0  0
   -3.7279   -0.4229    1.1334 H   0  0  0  0  0  0  0  0  0  0  0  0
    0.5191   -3.7177    1.9098 H   0  0  0  0  0  0  0  0  0  0  0  0
    1.1588   -0.2045   -0.4903 H   0  0  0  0  0  0  0  0  0  0  0  0
   -2.5592   -4.0457   -1.6907 H   0  0  0  0  0  0  0  0  0  0  0  0
   -5.4008   -1.3013    0.0932 H   0  0  0  0  0  0  0  0  0  0  0  0
    2.9712   -4.0706    2.0520 H   0  0  0  0  0  0  0  0  0  0  0  0
   -4.3758   -5.0982   -2.9677 H   0  0  0  0  0  0  0  0  0  0  0  0
    4.5163   -2.4741    0.9521 H   0  0  0  0  0  0  0  0  0  0  0  0
   -6.7004   -4.2928   -2.7456 H   0  0  0  0  0  0  0  0  0  0  0  0
    2.8036    0.8526   -1.6148 H   0  0  0  0  0  0  0  0  0  0  0  0
    3.0414    1.4245    0.0686 H   0  0  0  0  0  0  0  0  0  0  0  0
    5.1464    2.4710    0.7518 H   0  0  0  0  0  0  0  0  0  0  0  0
    4.6739    0.9182   -3.2448 H   0  0  0  0  0  0  0  0  0  0  0  0
    7.2249    3.6103    0.0619 H   0  0  0  0  0  0  0  0  0  0  0  0
    6.7534    2.0626   -3.9327 H   0  0  0  0  0  0  0  0  0  0  0  0
  1  2  1  0
  2  3  1  0
  1  4  1  0
  5  1  1  0
  4  6  2  0
  4  7  1  0
  5  8  1  0
  8  9  2  0
  8 10  1  0
  3 11  1  0
 11 12  2  0
 13 11  1  0
 12 14  1  0
 15 13  2  0
 13 16  1  0
 14 17  1  0
 14 15  1  0
 16 18  2  0
 19 16  1  0
 17 20  2  0
 21 17  1  0
 18 22  1  0
 23 19  2  0
 20 24  1  0
 25 21  2  0
 22 26  2  0
 26 23  1  0
 23 27  1  0
 24 28  2  0
 28 25  1  0
 25 29  1  0
 27 30  1  0
 29 31  1  0
 29 32  2  0
 30 33  1  0
 33 34  2  0
 35 33  1  0
 34 36  1  0
 37 35  2  0
 36 38  2  0
 38 37  1  0
 38 39  1  0
  1 40  1  6
  2 41  1  0
  2 42  1  0
  3 43  1  0
  3 44  1  0
  5 45  1  0
  5 46  1  0
 12 47  1  0
 18 48  1  0
 19 49  1  0
 20 50  1  0
 21 51  1  0
 22 52  1  0
 24 53  1  0
 26 54  1  0
 28 55  1  0
 30 56  1  0
 30 57  1  0
 34 58  1  0
 35 59  1  0
 36 60  1  0
 37 61  1  0
M  CHG  5   2   1   7  -1  10  -1  29   1  31  -1
M  END
>  <SMILES_raw>  (39) 
O=C(O)C[C@@H](C(O)=O)NCC1=CN(C2=CC=CC([N+]([O-])=O)=C2)N=C1C3=CC=CC(OCC4=CC=C(Cl)C=C4)=C3

>  <Protonation_Method>  (39) 
MolScrub

>  <Target_pH>  (39) 
7.4

$$$$
N-((3-(3-((4-chlorobenzyl)oxy)phenyl)-1-(3-nitrophenyl)-1H-pyrazol-4-yl)methyl)-L-phenylalanin
     RDKit          3D

 69 73  0  0  0  0  0  0  0  0999 V2000
   -4.3151   -0.7957   -0.4176 C   0  0  2  0  0  0  0  0  0  0  0  0
   -2.8615   -0.2707   -0.4142 N   0  0  0  0  0  0  0  0  0  0  0  0
   -2.3784    0.3105    0.8641 C   0  0  0  0  0  0  0  0  0  0  0  0
   -5.2661    0.4475   -0.4367 C   0  0  0  0  0  0  0  0  0  0  0  0
   -4.5269   -1.8225    0.6970 C   0  0  0  0  0  0  0  0  0  0  0  0
   -4.6574    1.4352   -0.9733 O   0  0  0  0  0  0  0  0  0  0  0  0
   -6.3755    0.3610    0.1280 O   0  0  0  0  0  0  0  0  0  0  0  0
   -5.3114   -3.0262    0.2271 C   0  0  0  0  0  0  0  0  0  0  0  0
   -6.7070   -2.9634    0.1198 C   0  0  0  0  0  0  0  0  0  0  0  0
   -4.6551   -4.2134   -0.1282 C   0  0  0  0  0  0  0  0  0  0  0  0
   -7.4323   -4.0670   -0.3317 C   0  0  0  0  0  0  0  0  0  0  0  0
   -5.3835   -5.3162   -0.5786 C   0  0  0  0  0  0  0  0  0  0  0  0
   -6.7716   -5.2426   -0.6804 C   0  0  0  0  0  0  0  0  0  0  0  0
   -1.3243    1.3266    0.6188 C   0  0  0  0  0  0  0  0  0  0  0  0
   -1.5147    2.5783    0.0624 C   0  0  0  0  0  0  0  0  0  0  0  0
    0.0753    1.2576    0.8562 C   0  0  0  0  0  0  0  0  0  0  0  0
   -0.2856    3.1816   -0.0361 N   0  0  0  0  0  0  0  0  0  0  0  0
    0.6909    2.3612    0.4147 N   0  0  0  0  0  0  0  0  0  0  0  0
    0.8553    0.1689    1.4402 C   0  0  0  0  0  0  0  0  0  0  0  0
    0.0262    4.4706   -0.5527 C   0  0  0  0  0  0  0  0  0  0  0  0
    0.4802   -0.4128    2.6572 C   0  0  0  0  0  0  0  0  0  0  0  0
    2.0080   -0.2890    0.7811 C   0  0  0  0  0  0  0  0  0  0  0  0
   -0.9797    5.3227   -1.0345 C   0  0  0  0  0  0  0  0  0  0  0  0
    1.3660    4.8938   -0.5813 C   0  0  0  0  0  0  0  0  0  0  0  0
    1.2229   -1.4675    3.1877 C   0  0  0  0  0  0  0  0  0  0  0  0
    2.7642   -1.3294    1.3220 C   0  0  0  0  0  0  0  0  0  0  0  0
   -0.6519    6.5836   -1.5441 C   0  0  0  0  0  0  0  0  0  0  0  0
    1.6828    6.1588   -1.0956 C   0  0  0  0  0  0  0  0  0  0  0  0
    2.3537   -1.9284    2.5146 C   0  0  0  0  0  0  0  0  0  0  0  0
    3.9024   -1.8552    0.7773 O   0  0  0  0  0  0  0  0  0  0  0  0
    0.6772    7.0054   -1.5796 C   0  0  0  0  0  0  0  0  0  0  0  0
    3.0831    6.6005   -1.1321 N   0  0  0  0  0  0  0  0  0  0  0  0
    4.5740   -1.0553   -0.1965 C   0  0  0  0  0  0  0  0  0  0  0  0
    3.9422    5.8368   -0.6688 O   0  0  0  0  0  0  0  0  0  0  0  0
    3.3239    7.7107   -1.6277 O   0  0  0  0  0  0  0  0  0  0  0  0
    5.9212   -1.6814   -0.4678 C   0  0  0  0  0  0  0  0  0  0  0  0
    6.0085   -2.9045   -1.1503 C   0  0  0  0  0  0  0  0  0  0  0  0
    7.1004   -1.0625   -0.0270 C   0  0  0  0  0  0  0  0  0  0  0  0
    7.2518   -3.4921   -1.3957 C   0  0  0  0  0  0  0  0  0  0  0  0
    8.3437   -1.6502   -0.2734 C   0  0  0  0  0  0  0  0  0  0  0  0
    8.4141   -2.8616   -0.9572 C   0  0  0  0  0  0  0  0  0  0  0  0
    9.9451   -3.5874   -1.2563 Cl  0  0  0  0  0  0  0  0  0  0  0  0
   -4.4092   -1.2649   -1.4052 H   0  0  0  0  0  0  0  0  0  0  0  0
   -3.0136    0.5647   -1.0261 H   0  0  0  0  0  0  0  0  0  0  0  0
   -2.1977   -0.8836   -0.8874 H   0  0  0  0  0  0  0  0  0  0  0  0
   -2.0210   -0.5255    1.4686 H   0  0  0  0  0  0  0  0  0  0  0  0
   -3.2267    0.7724    1.3819 H   0  0  0  0  0  0  0  0  0  0  0  0
   -5.0371   -1.3771    1.5601 H   0  0  0  0  0  0  0  0  0  0  0  0
   -3.5663   -2.1886    1.0808 H   0  0  0  0  0  0  0  0  0  0  0  0
   -7.2426   -2.0513    0.3857 H   0  0  0  0  0  0  0  0  0  0  0  0
   -3.5734   -4.2964   -0.0535 H   0  0  0  0  0  0  0  0  0  0  0  0
   -8.5154   -4.0043   -0.4106 H   0  0  0  0  0  0  0  0  0  0  0  0
   -4.8697   -6.2355   -0.8493 H   0  0  0  0  0  0  0  0  0  0  0  0
   -7.3392   -6.1006   -1.0308 H   0  0  0  0  0  0  0  0  0  0  0  0
   -2.4255    3.0601   -0.2702 H   0  0  0  0  0  0  0  0  0  0  0  0
   -0.3713   -0.0379    3.2194 H   0  0  0  0  0  0  0  0  0  0  0  0
    2.2936    0.1871   -0.1525 H   0  0  0  0  0  0  0  0  0  0  0  0
   -2.0301    5.0429   -1.0257 H   0  0  0  0  0  0  0  0  0  0  0  0
    2.1556    4.2440   -0.2043 H   0  0  0  0  0  0  0  0  0  0  0  0
    0.9358   -1.9199    4.1339 H   0  0  0  0  0  0  0  0  0  0  0  0
   -1.4385    7.2404   -1.9105 H   0  0  0  0  0  0  0  0  0  0  0  0
    2.9389   -2.7436    2.9359 H   0  0  0  0  0  0  0  0  0  0  0  0
    0.9100    7.9902   -1.9802 H   0  0  0  0  0  0  0  0  0  0  0  0
    4.7076   -0.0290    0.1687 H   0  0  0  0  0  0  0  0  0  0  0  0
    4.0010   -1.0300   -1.1316 H   0  0  0  0  0  0  0  0  0  0  0  0
    5.1043   -3.4091   -1.4852 H   0  0  0  0  0  0  0  0  0  0  0  0
    7.0596   -0.1201    0.5154 H   0  0  0  0  0  0  0  0  0  0  0  0
    7.3060   -4.4409   -1.9226 H   0  0  0  0  0  0  0  0  0  0  0  0
    9.2497   -1.1601    0.0737 H   0  0  0  0  0  0  0  0  0  0  0  0
  1  2  1  0
  2  3  1  0
  1  4  1  0
  1  5  1  0
  4  6  2  0
  4  7  1  0
  5  8  1  0
  8  9  2  0
 10  8  1  0
  9 11  1  0
 12 10  2  0
 11 13  2  0
 13 12  1  0
  3 14  1  0
 14 15  2  0
 16 14  1  0
 15 17  1  0
 18 16  2  0
 16 19  1  0
 17 20  1  0
 17 18  1  0
 19 21  2  0
 22 19  1  0
 20 23  2  0
 24 20  1  0
 21 25  1  0
 26 22  2  0
 23 27  1  0
 28 24  2  0
 25 29  2  0
 29 26  1  0
 26 30  1  0
 27 31  2  0
 31 28  1  0
 28 32  1  0
 30 33  1  0
 32 34  1  0
 32 35  2  0
 33 36  1  0
 36 37  2  0
 38 36  1  0
 37 39  1  0
 40 38  2  0
 39 41  2  0
 41 40  1  0
 41 42  1  0
  1 43  1  6
  2 44  1  0
  2 45  1  0
  3 46  1  0
  3 47  1  0
  5 48  1  0
  5 49  1  0
  9 50  1  0
 10 51  1  0
 11 52  1  0
 12 53  1  0
 13 54  1  0
 15 55  1  0
 21 56  1  0
 22 57  1  0
 23 58  1  0
 24 59  1  0
 25 60  1  0
 27 61  1  0
 29 62  1  0
 31 63  1  0
 33 64  1  0
 33 65  1  0
 37 66  1  0
 38 67  1  0
 39 68  1  0
 40 69  1  0
M  CHG  4   2   1   7  -1  32   1  34  -1
M  END
>  <SMILES_raw>  (40) 
O=C(O)[C@H](CC1=CC=CC=C1)NCC2=CN(C3=CC=CC([N+]([O-])=O)=C3)N=C2C4=CC=CC(OCC5=CC=C(Cl)C=C5)=C4

>  <Protonation_Method>  (40) 
MolScrub

>  <Target_pH>  (40) 
7.4

$$$$
N-((3-(3-((4-chlorobenzyl)oxy)phenyl)-1-(3-nitrophenyl)-1H-pyrazol-4-yl)methyl)-L-isoleucin
     RDKit          3D

 68 71  0  0  0  0  0  0  0  0999 V2000
   -4.7640   -0.9306   -0.0526 C   0  0  2  0  0  0  0  0  0  0  0  0
   -3.4916   -0.1670   -0.4809 N   0  0  0  0  0  0  0  0  0  0  0  0
   -2.3985   -0.0892    0.5217 C   0  0  0  0  0  0  0  0  0  0  0  0
   -5.5286   -0.0054    0.9685 C   0  0  0  0  0  0  0  0  0  0  0  0
   -4.4396   -2.4035    0.2797 C   0  0  2  0  0  0  0  0  0  0  0  0
   -6.2667   -0.5376    1.8184 O   0  0  0  0  0  0  0  0  0  0  0  0
   -5.1783    1.2081    0.7779 O   0  0  0  0  0  0  0  0  0  0  0  0
   -3.5869   -3.1241   -0.7966 C   0  0  0  0  0  0  0  0  0  0  0  0
   -5.7162   -3.2205    0.5398 C   0  0  0  0  0  0  0  0  0  0  0  0
   -4.2254   -3.2191   -2.1765 C   0  0  0  0  0  0  0  0  0  0  0  0
   -1.4561    1.0059    0.1809 C   0  0  0  0  0  0  0  0  0  0  0  0
   -1.6815    2.3622    0.3251 C   0  0  0  0  0  0  0  0  0  0  0  0
   -0.1300    0.9211   -0.3222 C   0  0  0  0  0  0  0  0  0  0  0  0
   -0.5283    3.0150   -0.0398 N   0  0  0  0  0  0  0  0  0  0  0  0
    0.4124    2.1359   -0.4579 N   0  0  0  0  0  0  0  0  0  0  0  0
    0.6377   -0.2710   -0.6659 C   0  0  0  0  0  0  0  0  0  0  0  0
   -0.2578    4.4131   -0.0085 C   0  0  0  0  0  0  0  0  0  0  0  0
    0.1434   -1.2056   -1.5809 C   0  0  0  0  0  0  0  0  0  0  0  0
    1.8921   -0.4850   -0.0803 C   0  0  0  0  0  0  0  0  0  0  0  0
    1.0125    4.8759   -0.3992 C   0  0  0  0  0  0  0  0  0  0  0  0
   -1.2221    5.3337    0.4241 C   0  0  0  0  0  0  0  0  0  0  0  0
    0.8827   -2.3499   -1.8807 C   0  0  0  0  0  0  0  0  0  0  0  0
    2.6419   -1.6241   -0.3858 C   0  0  0  0  0  0  0  0  0  0  0  0
    1.3168    6.2395   -0.3665 C   0  0  0  0  0  0  0  0  0  0  0  0
   -0.9057    6.7031    0.4516 C   0  0  0  0  0  0  0  0  0  0  0  0
    2.1267   -2.5625   -1.2803 C   0  0  0  0  0  0  0  0  0  0  0  0
    3.8457   -1.7036    0.2575 O   0  0  0  0  0  0  0  0  0  0  0  0
    0.3596    7.1593    0.0592 C   0  0  0  0  0  0  0  0  0  0  0  0
   -1.9125    7.6732    0.9034 N   0  0  0  0  0  0  0  0  0  0  0  0
    4.7394   -2.7335   -0.1598 C   0  0  0  0  0  0  0  0  0  0  0  0
   -3.0649    7.2586    1.0891 O   0  0  0  0  0  0  0  0  0  0  0  0
   -1.5492    8.8459    1.0703 O   0  0  0  0  0  0  0  0  0  0  0  0
    6.0568   -2.5248    0.5473 C   0  0  0  0  0  0  0  0  0  0  0  0
    6.4132   -3.3143    1.6503 C   0  0  0  0  0  0  0  0  0  0  0  0
    6.9321   -1.5136    0.1212 C   0  0  0  0  0  0  0  0  0  0  0  0
    7.6308   -3.1084    2.3037 C   0  0  0  0  0  0  0  0  0  0  0  0
    8.1491   -1.3084    0.7746 C   0  0  0  0  0  0  0  0  0  0  0  0
    8.4937   -2.1080    1.8618 C   0  0  0  0  0  0  0  0  0  0  0  0
    9.9930   -1.8548    2.6666 Cl  0  0  0  0  0  0  0  0  0  0  0  0
   -5.3906   -0.9041   -0.9539 H   0  0  0  0  0  0  0  0  0  0  0  0
   -3.1954   -0.3508   -1.4378 H   0  0  0  0  0  0  0  0  0  0  0  0
   -3.8914    0.8017   -0.4551 H   0  0  0  0  0  0  0  0  0  0  0  0
   -2.8415    0.0877    1.5074 H   0  0  0  0  0  0  0  0  0  0  0  0
   -1.8982   -1.0598    0.5459 H   0  0  0  0  0  0  0  0  0  0  0  0
   -3.8625   -2.4241    1.2138 H   0  0  0  0  0  0  0  0  0  0  0  0
   -2.6135   -2.6358   -0.9011 H   0  0  0  0  0  0  0  0  0  0  0  0
   -3.3663   -4.1416   -0.4482 H   0  0  0  0  0  0  0  0  0  0  0  0
   -5.4912   -4.2907    0.6186 H   0  0  0  0  0  0  0  0  0  0  0  0
   -6.1889   -2.9369    1.4839 H   0  0  0  0  0  0  0  0  0  0  0  0
   -6.4515   -3.0865   -0.2605 H   0  0  0  0  0  0  0  0  0  0  0  0
   -4.4267   -2.2310   -2.5985 H   0  0  0  0  0  0  0  0  0  0  0  0
   -5.1605   -3.7843   -2.1482 H   0  0  0  0  0  0  0  0  0  0  0  0
   -3.5483   -3.7384   -2.8632 H   0  0  0  0  0  0  0  0  0  0  0  0
   -2.5556    2.8870    0.6891 H   0  0  0  0  0  0  0  0  0  0  0  0
   -0.8036   -1.0455   -2.0866 H   0  0  0  0  0  0  0  0  0  0  0  0
    2.2973    0.2471    0.6166 H   0  0  0  0  0  0  0  0  0  0  0  0
    1.7829    4.1800   -0.7333 H   0  0  0  0  0  0  0  0  0  0  0  0
   -2.2129    5.0124    0.7366 H   0  0  0  0  0  0  0  0  0  0  0  0
    0.4962   -3.0761   -2.5916 H   0  0  0  0  0  0  0  0  0  0  0  0
    2.3027    6.5809   -0.6748 H   0  0  0  0  0  0  0  0  0  0  0  0
    2.6670   -3.4680   -1.5374 H   0  0  0  0  0  0  0  0  0  0  0  0
    0.6123    8.2179    0.0797 H   0  0  0  0  0  0  0  0  0  0  0  0
    4.9113   -2.6916   -1.2436 H   0  0  0  0  0  0  0  0  0  0  0  0
    4.3301   -3.7181    0.0978 H   0  0  0  0  0  0  0  0  0  0  0  0
    5.7440   -4.0919    2.0123 H   0  0  0  0  0  0  0  0  0  0  0  0
    6.6633   -0.8762   -0.7193 H   0  0  0  0  0  0  0  0  0  0  0  0
    7.8966   -3.7268    3.1570 H   0  0  0  0  0  0  0  0  0  0  0  0
    8.8189   -0.5228    0.4361 H   0  0  0  0  0  0  0  0  0  0  0  0
  1  2  1  0
  2  3  1  0
  1  4  1  0
  5  1  1  0
  4  6  2  0
  4  7  1  0
  8  5  1  0
  5  9  1  0
 10  8  1  0
  3 11  1  0
 11 12  2  0
 13 11  1  0
 12 14  1  0
 15 13  2  0
 13 16  1  0
 14 17  1  0
 14 15  1  0
 16 18  2  0
 19 16  1  0
 17 20  2  0
 21 17  1  0
 18 22  1  0
 23 19  2  0
 20 24  1  0
 25 21  2  0
 22 26  2  0
 26 23  1  0
 23 27  1  0
 24 28  2  0
 28 25  1  0
 25 29  1  0
 27 30  1  0
 29 31  1  0
 29 32  2  0
 30 33  1  0
 33 34  2  0
 35 33  1  0
 34 36  1  0
 37 35  2  0
 36 38  2  0
 38 37  1  0
 38 39  1  0
  1 40  1  6
  2 41  1  0
  2 42  1  0
  3 43  1  0
  3 44  1  0
  5 45  1  1
  8 46  1  0
  8 47  1  0
  9 48  1  0
  9 49  1  0
  9 50  1  0
 10 51  1  0
 10 52  1  0
 10 53  1  0
 12 54  1  0
 18 55  1  0
 19 56  1  0
 20 57  1  0
 21 58  1  0
 22 59  1  0
 24 60  1  0
 26 61  1  0
 28 62  1  0
 30 63  1  0
 30 64  1  0
 34 65  1  0
 35 66  1  0
 36 67  1  0
 37 68  1  0
M  CHG  4   2   1   7  -1  29   1  31  -1
M  END
>  <SMILES_raw>  (41) 
CC[C@H](C)[C@@H](C(O)=O)NCC1=CN(C2=CC=CC([N+]([O-])=O)=C2)N=C1C3=CC=CC(OCC4=CC=C(Cl)C=C4)=C3

>  <Protonation_Method>  (41) 
MolScrub

>  <Target_pH>  (41) 
7.4

$$$$
N-((3-(3-((4-chlorobenzyl)oxy)phenyl)-1-(3-nitrophenyl)-1H-pyrazol-4-yl)methyl)-L-leucin
     RDKit          3D

 68 71  0  0  0  0  0  0  0  0999 V2000
   -4.5358   -1.1960    0.1876 C   0  0  2  0  0  0  0  0  0  0  0  0
   -3.3404   -0.3912   -0.3671 N   0  0  0  0  0  0  0  0  0  0  0  0
   -2.1485   -0.3081    0.5144 C   0  0  0  0  0  0  0  0  0  0  0  0
   -5.2068   -0.3152    1.3018 C   0  0  0  0  0  0  0  0  0  0  0  0
   -4.0865   -2.6214    0.5218 C   0  0  0  0  0  0  0  0  0  0  0  0
   -5.7251   -0.8893    2.2805 O   0  0  0  0  0  0  0  0  0  0  0  0
   -4.9986    0.9188    1.0439 O   0  0  0  0  0  0  0  0  0  0  0  0
   -5.0926   -3.7465    0.1878 C   0  0  0  0  0  0  0  0  0  0  0  0
   -6.4412   -3.5917    0.8861 C   0  0  0  0  0  0  0  0  0  0  0  0
   -5.2901   -3.9080   -1.3217 C   0  0  0  0  0  0  0  0  0  0  0  0
   -1.3780    0.9324    0.2554 C   0  0  0  0  0  0  0  0  0  0  0  0
   -1.7254    2.2158    0.6337 C   0  0  0  0  0  0  0  0  0  0  0  0
   -0.1236    1.0851   -0.3882 C   0  0  0  0  0  0  0  0  0  0  0  0
   -0.7000    3.0503    0.2565 N   0  0  0  0  0  0  0  0  0  0  0  0
    0.2702    2.3623   -0.3909 N   0  0  0  0  0  0  0  0  0  0  0  0
    0.7084    0.0515   -0.9849 C   0  0  0  0  0  0  0  0  0  0  0  0
   -0.5747    4.4508    0.4787 C   0  0  0  0  0  0  0  0  0  0  0  0
    0.2783   -0.6404   -2.1217 C   0  0  0  0  0  0  0  0  0  0  0  0
    1.9495   -0.2560   -0.4164 C   0  0  0  0  0  0  0  0  0  0  0  0
   -1.5685    5.1684    1.1620 C   0  0  0  0  0  0  0  0  0  0  0  0
    0.5704    5.1206    0.0157 C   0  0  0  0  0  0  0  0  0  0  0  0
    1.0790   -1.6441   -2.6680 C   0  0  0  0  0  0  0  0  0  0  0  0
    2.7579   -1.2543   -0.9661 C   0  0  0  0  0  0  0  0  0  0  0  0
   -1.4189    6.5410    1.3860 C   0  0  0  0  0  0  0  0  0  0  0  0
    0.7092    6.4962    0.2454 C   0  0  0  0  0  0  0  0  0  0  0  0
    2.3131   -1.9549   -2.0884 C   0  0  0  0  0  0  0  0  0  0  0  0
    3.9414   -1.4512   -0.3118 O   0  0  0  0  0  0  0  0  0  0  0  0
   -0.2820    7.2096    0.9317 C   0  0  0  0  0  0  0  0  0  0  0  0
    1.9060    7.1994   -0.2357 N   0  0  0  0  0  0  0  0  0  0  0  0
    4.9045   -2.2881   -0.9493 C   0  0  0  0  0  0  0  0  0  0  0  0
    2.0458    8.3876    0.0911 O   0  0  0  0  0  0  0  0  0  0  0  0
    2.7051    6.5668   -0.9404 O   0  0  0  0  0  0  0  0  0  0  0  0
    6.1926   -2.1928   -0.1681 C   0  0  0  0  0  0  0  0  0  0  0  0
    6.5224   -3.1584    0.7941 C   0  0  0  0  0  0  0  0  0  0  0  0
    7.0617   -1.1100   -0.3730 C   0  0  0  0  0  0  0  0  0  0  0  0
    7.7106   -3.0547    1.5219 C   0  0  0  0  0  0  0  0  0  0  0  0
    8.2498   -1.0071    0.3539 C   0  0  0  0  0  0  0  0  0  0  0  0
    8.5702   -1.9813    1.2964 C   0  0  0  0  0  0  0  0  0  0  0  0
   10.0353   -1.8572    2.1899 Cl  0  0  0  0  0  0  0  0  0  0  0  0
   -5.2404   -1.1996   -0.6505 H   0  0  0  0  0  0  0  0  0  0  0  0
   -3.1364   -0.5782   -1.3477 H   0  0  0  0  0  0  0  0  0  0  0  0
   -3.7646    0.5642   -0.2997 H   0  0  0  0  0  0  0  0  0  0  0  0
   -2.4842   -0.3234    1.5571 H   0  0  0  0  0  0  0  0  0  0  0  0
   -1.5515   -1.2064    0.3332 H   0  0  0  0  0  0  0  0  0  0  0  0
   -3.1582   -2.8625   -0.0128 H   0  0  0  0  0  0  0  0  0  0  0  0
   -3.8450   -2.6835    1.5906 H   0  0  0  0  0  0  0  0  0  0  0  0
   -4.6461   -4.6823    0.5523 H   0  0  0  0  0  0  0  0  0  0  0  0
   -7.0780   -4.4612    0.6865 H   0  0  0  0  0  0  0  0  0  0  0  0
   -6.3123   -3.5222    1.9712 H   0  0  0  0  0  0  0  0  0  0  0  0
   -6.9789   -2.7033    0.5396 H   0  0  0  0  0  0  0  0  0  0  0  0
   -5.8308   -3.0624   -1.7579 H   0  0  0  0  0  0  0  0  0  0  0  0
   -5.8668   -4.8140   -1.5373 H   0  0  0  0  0  0  0  0  0  0  0  0
   -4.3271   -3.9989   -1.8347 H   0  0  0  0  0  0  0  0  0  0  0  0
   -2.6016    2.5730    1.1599 H   0  0  0  0  0  0  0  0  0  0  0  0
   -0.6608   -0.3865   -2.6051 H   0  0  0  0  0  0  0  0  0  0  0  0
    2.3008    0.2937    0.4556 H   0  0  0  0  0  0  0  0  0  0  0  0
   -2.4704    4.6924    1.5415 H   0  0  0  0  0  0  0  0  0  0  0  0
    1.3467    4.5758   -0.5226 H   0  0  0  0  0  0  0  0  0  0  0  0
    0.7522   -2.1794   -3.5569 H   0  0  0  0  0  0  0  0  0  0  0  0
   -2.1926    7.0893    1.9218 H   0  0  0  0  0  0  0  0  0  0  0  0
    2.9044   -2.7441   -2.5420 H   0  0  0  0  0  0  0  0  0  0  0  0
   -0.1852    8.2776    1.1182 H   0  0  0  0  0  0  0  0  0  0  0  0
    5.0921   -1.9638   -1.9820 H   0  0  0  0  0  0  0  0  0  0  0  0
    4.5540   -3.3284   -0.9619 H   0  0  0  0  0  0  0  0  0  0  0  0
    5.8535   -3.9944    0.9879 H   0  0  0  0  0  0  0  0  0  0  0  0
    6.8114   -0.3364   -1.0967 H   0  0  0  0  0  0  0  0  0  0  0  0
    7.9562   -3.8092    2.2645 H   0  0  0  0  0  0  0  0  0  0  0  0
    8.9150   -0.1647    0.1834 H   0  0  0  0  0  0  0  0  0  0  0  0
  1  2  1  0
  2  3  1  0
  1  4  1  0
  5  1  1  0
  4  6  2  0
  4  7  1  0
  8  5  1  0
  9  8  1  0
  8 10  1  0
  3 11  1  0
 11 12  2  0
 13 11  1  0
 12 14  1  0
 15 13  2  0
 13 16  1  0
 14 17  1  0
 14 15  1  0
 16 18  2  0
 19 16  1  0
 17 20  2  0
 21 17  1  0
 18 22  1  0
 23 19  2  0
 20 24  1  0
 25 21  2  0
 22 26  2  0
 26 23  1  0
 23 27  1  0
 24 28  2  0
 28 25  1  0
 25 29  1  0
 27 30  1  0
 29 31  1  0
 29 32  2  0
 30 33  1  0
 33 34  2  0
 35 33  1  0
 34 36  1  0
 37 35  2  0
 36 38  2  0
 38 37  1  0
 38 39  1  0
  1 40  1  6
  2 41  1  0
  2 42  1  0
  3 43  1  0
  3 44  1  0
  5 45  1  0
  5 46  1  0
  8 47  1  0
  9 48  1  0
  9 49  1  0
  9 50  1  0
 10 51  1  0
 10 52  1  0
 10 53  1  0
 12 54  1  0
 18 55  1  0
 19 56  1  0
 20 57  1  0
 21 58  1  0
 22 59  1  0
 24 60  1  0
 26 61  1  0
 28 62  1  0
 30 63  1  0
 30 64  1  0
 34 65  1  0
 35 66  1  0
 36 67  1  0
 37 68  1  0
M  CHG  4   2   1   7  -1  29   1  31  -1
M  END
>  <SMILES_raw>  (42) 
CC(C)C[C@@H](C(O)=O)NCC1=CN(C2=CC=CC([N+]([O-])=O)=C2)N=C1C3=CC=CC(OCC4=CC=C(Cl)C=C4)=C3

>  <Protonation_Method>  (42) 
MolScrub

>  <Target_pH>  (42) 
7.4

$$$$
N-((3-(3-((4-chlorobenzyl)oxy)phenyl)-1-(3-nitrophenyl)-1H-pyrazol-4-yl)methyl)-L-methionin
     RDKit          3D

 66 69  0  0  0  0  0  0  0  0999 V2000
   -2.7933    2.8992   -0.7087 C   0  0  2  0  0  0  0  0  0  0  0  0
   -2.3110    1.4644   -0.4083 N   0  0  0  0  0  0  0  0  0  0  0  0
   -1.6753    0.7541   -1.5262 C   0  0  0  0  0  0  0  0  0  0  0  0
   -1.9403    3.8870    0.1463 C   0  0  0  0  0  0  0  0  0  0  0  0
   -4.2850    2.9648   -0.3902 C   0  0  0  0  0  0  0  0  0  0  0  0
   -2.1653    5.1072    0.0185 O   0  0  0  0  0  0  0  0  0  0  0  0
   -1.1049    3.2248    0.8460 O   0  0  0  0  0  0  0  0  0  0  0  0
   -4.9425    4.2346   -0.9360 C   0  0  0  0  0  0  0  0  0  0  0  0
   -6.7605    4.0981   -0.8284 S   0  0  0  0  0  0  0  0  0  0  0  0
   -6.9849    4.6033    0.8969 C   0  0  0  0  0  0  0  0  0  0  0  0
   -1.2778   -0.6197   -1.1319 C   0  0  0  0  0  0  0  0  0  0  0  0
   -2.0927   -1.7325   -1.0241 C   0  0  0  0  0  0  0  0  0  0  0  0
    0.0088   -1.0899   -0.7508 C   0  0  0  0  0  0  0  0  0  0  0  0
   -1.3084   -2.7784   -0.5873 N   0  0  0  0  0  0  0  0  0  0  0  0
   -0.0305   -2.3822   -0.4105 N   0  0  0  0  0  0  0  0  0  0  0  0
    1.2565   -0.3424   -0.6686 C   0  0  0  0  0  0  0  0  0  0  0  0
   -1.6981   -4.1205   -0.3134 C   0  0  0  0  0  0  0  0  0  0  0  0
    1.8006    0.2713   -1.8013 C   0  0  0  0  0  0  0  0  0  0  0  0
    1.9223   -0.2374    0.5583 C   0  0  0  0  0  0  0  0  0  0  0  0
   -0.7376   -5.0334    0.1580 C   0  0  0  0  0  0  0  0  0  0  0  0
   -3.0201   -4.5474   -0.4951 C   0  0  0  0  0  0  0  0  0  0  0  0
    2.9866    0.9983   -1.6964 C   0  0  0  0  0  0  0  0  0  0  0  0
    3.1050    0.4981    0.6698 C   0  0  0  0  0  0  0  0  0  0  0  0
   -1.0889   -6.3555    0.4463 C   0  0  0  0  0  0  0  0  0  0  0  0
   -3.3610   -5.8806   -0.2056 C   0  0  0  0  0  0  0  0  0  0  0  0
    3.6354    1.1142   -0.4637 C   0  0  0  0  0  0  0  0  0  0  0  0
    3.6511    0.5081    1.9232 O   0  0  0  0  0  0  0  0  0  0  0  0
   -2.4023   -6.7858    0.2661 C   0  0  0  0  0  0  0  0  0  0  0  0
   -4.7462   -6.3281   -0.3988 N   0  0  0  0  0  0  0  0  0  0  0  0
    4.6698    1.4704    2.2111 C   0  0  0  0  0  0  0  0  0  0  0  0
   -5.0519   -7.4569    0.0083 O   0  0  0  0  0  0  0  0  0  0  0  0
   -5.5264   -5.5443   -0.9604 O   0  0  0  0  0  0  0  0  0  0  0  0
    6.0629    0.9968    1.8511 C   0  0  0  0  0  0  0  0  0  0  0  0
    6.3916   -0.3674    1.8320 C   0  0  0  0  0  0  0  0  0  0  0  0
    7.0671    1.9386    1.5765 C   0  0  0  0  0  0  0  0  0  0  0  0
    7.6872   -0.7830    1.5137 C   0  0  0  0  0  0  0  0  0  0  0  0
    8.3633    1.5232    1.2602 C   0  0  0  0  0  0  0  0  0  0  0  0
    8.6663    0.1642    1.2262 C   0  0  0  0  0  0  0  0  0  0  0  0
   10.2604   -0.3465    0.8260 Cl  0  0  0  0  0  0  0  0  0  0  0  0
   -2.5996    3.0845   -1.7715 H   0  0  0  0  0  0  0  0  0  0  0  0
   -2.9921    0.9166    0.1194 H   0  0  0  0  0  0  0  0  0  0  0  0
   -1.5571    1.6892    0.2967 H   0  0  0  0  0  0  0  0  0  0  0  0
   -0.8295    1.3595   -1.8649 H   0  0  0  0  0  0  0  0  0  0  0  0
   -2.4123    0.7095   -2.3361 H   0  0  0  0  0  0  0  0  0  0  0  0
   -4.7744    2.0870   -0.8331 H   0  0  0  0  0  0  0  0  0  0  0  0
   -4.4341    2.9056    0.6953 H   0  0  0  0  0  0  0  0  0  0  0  0
   -4.6891    4.3609   -1.9948 H   0  0  0  0  0  0  0  0  0  0  0  0
   -4.6217    5.1358   -0.4073 H   0  0  0  0  0  0  0  0  0  0  0  0
   -6.4461    3.9333    1.5706 H   0  0  0  0  0  0  0  0  0  0  0  0
   -8.0493    4.5579    1.1453 H   0  0  0  0  0  0  0  0  0  0  0  0
   -6.6382    5.6302    1.0402 H   0  0  0  0  0  0  0  0  0  0  0  0
   -3.1489   -1.8514   -1.2154 H   0  0  0  0  0  0  0  0  0  0  0  0
    1.3264    0.1719   -2.7736 H   0  0  0  0  0  0  0  0  0  0  0  0
    1.5179   -0.7269    1.4418 H   0  0  0  0  0  0  0  0  0  0  0  0
    0.2997   -4.7312    0.3015 H   0  0  0  0  0  0  0  0  0  0  0  0
   -3.7900   -3.8719   -0.8547 H   0  0  0  0  0  0  0  0  0  0  0  0
    3.4175    1.4696   -2.5769 H   0  0  0  0  0  0  0  0  0  0  0  0
   -0.3308   -7.0487    0.8050 H   0  0  0  0  0  0  0  0  0  0  0  0
    4.5642    1.6741   -0.4294 H   0  0  0  0  0  0  0  0  0  0  0  0
   -2.6584   -7.8189    0.4926 H   0  0  0  0  0  0  0  0  0  0  0  0
    4.4339    2.4397    1.7534 H   0  0  0  0  0  0  0  0  0  0  0  0
    4.6492    1.6290    3.2960 H   0  0  0  0  0  0  0  0  0  0  0  0
    5.6356   -1.1180    2.0571 H   0  0  0  0  0  0  0  0  0  0  0  0
    6.8457    3.0040    1.6059 H   0  0  0  0  0  0  0  0  0  0  0  0
    7.9221   -1.8436    1.4925 H   0  0  0  0  0  0  0  0  0  0  0  0
    9.1293    2.2634    1.0444 H   0  0  0  0  0  0  0  0  0  0  0  0
  1  2  1  0
  2  3  1  0
  1  4  1  0
  5  1  1  0
  4  6  2  0
  4  7  1  0
  8  5  1  0
  9  8  1  0
 10  9  1  0
  3 11  1  0
 11 12  2  0
 13 11  1  0
 12 14  1  0
 15 13  2  0
 13 16  1  0
 14 17  1  0
 14 15  1  0
 16 18  2  0
 19 16  1  0
 17 20  2  0
 21 17  1  0
 18 22  1  0
 23 19  2  0
 20 24  1  0
 25 21  2  0
 22 26  2  0
 26 23  1  0
 23 27  1  0
 24 28  2  0
 28 25  1  0
 25 29  1  0
 27 30  1  0
 29 31  1  0
 29 32  2  0
 30 33  1  0
 33 34  2  0
 35 33  1  0
 34 36  1  0
 37 35  2  0
 36 38  2  0
 38 37  1  0
 38 39  1  0
  1 40  1  6
  2 41  1  0
  2 42  1  0
  3 43  1  0
  3 44  1  0
  5 45  1  0
  5 46  1  0
  8 47  1  0
  8 48  1  0
 10 49  1  0
 10 50  1  0
 10 51  1  0
 12 52  1  0
 18 53  1  0
 19 54  1  0
 20 55  1  0
 21 56  1  0
 22 57  1  0
 24 58  1  0
 26 59  1  0
 28 60  1  0
 30 61  1  0
 30 62  1  0
 34 63  1  0
 35 64  1  0
 36 65  1  0
 37 66  1  0
M  CHG  4   2   1   7  -1  29   1  31  -1
M  END
>  <SMILES_raw>  (43) 
CSCC[C@@H](C(O)=O)NCC1=CN(C2=CC=CC([N+]([O-])=O)=C2)N=C1C3=CC=CC(OCC4=CC=C(Cl)C=C4)=C3

>  <Protonation_Method>  (43) 
MolScrub

>  <Target_pH>  (43) 
7.4

$$$$
N-((3-(3-((4-chlorobenzyl)oxy)phenyl)-1-(3-nitrophenyl)-1H-pyrazol-4-yl)methyl)-L-threonin
     RDKit          3D

 63 66  0  0  0  0  0  0  0  0999 V2000
   -2.1976   -3.9087   -0.0675 C   0  0  2  0  0  0  0  0  0  0  0  0
   -1.8102   -2.4397   -0.3446 N   0  0  0  0  0  0  0  0  0  0  0  0
   -1.7819   -1.5655    0.8548 C   0  0  0  0  0  0  0  0  0  0  0  0
   -3.6727   -3.9984    0.4121 C   0  0  0  0  0  0  0  0  0  0  0  0
   -1.1303   -4.5588    0.8190 C   0  0  1  0  0  0  0  0  0  0  0  0
   -4.3727   -3.0721   -0.1088 O   0  0  0  0  0  0  0  0  0  0  0  0
   -3.9452   -4.8612    1.2746 O   0  0  0  0  0  0  0  0  0  0  0  0
   -1.0842   -6.0738    0.6622 C   0  0  0  0  0  0  0  0  0  0  0  0
    0.1577   -4.0265    0.4379 O   0  0  0  0  0  0  0  0  0  0  0  0
   -1.9884   -0.1466    0.4708 C   0  0  0  0  0  0  0  0  0  0  0  0
   -3.1842    0.4168    0.0649 C   0  0  0  0  0  0  0  0  0  0  0  0
   -1.0655    0.9347    0.4610 C   0  0  0  0  0  0  0  0  0  0  0  0
   -2.9615    1.7546   -0.1446 N   0  0  0  0  0  0  0  0  0  0  0  0
   -1.6697    2.0733    0.0968 N   0  0  0  0  0  0  0  0  0  0  0  0
    0.3567    0.9327    0.7991 C   0  0  0  0  0  0  0  0  0  0  0  0
   -3.8926    2.7490   -0.5581 C   0  0  0  0  0  0  0  0  0  0  0  0
    0.8787    1.9274    1.6336 C   0  0  0  0  0  0  0  0  0  0  0  0
    1.2217   -0.0424    0.2862 C   0  0  0  0  0  0  0  0  0  0  0  0
   -5.2323    2.4232   -0.8229 C   0  0  0  0  0  0  0  0  0  0  0  0
   -3.4604    4.0786   -0.7043 C   0  0  0  0  0  0  0  0  0  0  0  0
    2.2353    1.9320    1.9606 C   0  0  0  0  0  0  0  0  0  0  0  0
    2.5815   -0.0484    0.6182 C   0  0  0  0  0  0  0  0  0  0  0  0
   -6.1313    3.4139   -1.2314 C   0  0  0  0  0  0  0  0  0  0  0  0
   -4.3714    5.0629   -1.1131 C   0  0  0  0  0  0  0  0  0  0  0  0
    3.0847    0.9441    1.4569 C   0  0  0  0  0  0  0  0  0  0  0  0
    3.2960   -1.0605    0.0389 O   0  0  0  0  0  0  0  0  0  0  0  0
   -5.7069    4.7350   -1.3781 C   0  0  0  0  0  0  0  0  0  0  0  0
   -3.9245    6.4537   -1.2664 N   0  0  0  0  0  0  0  0  0  0  0  0
    4.6734   -1.2205    0.3939 C   0  0  0  0  0  0  0  0  0  0  0  0
   -4.7521    7.2832   -1.6716 O   0  0  0  0  0  0  0  0  0  0  0  0
   -2.7476    6.7180   -0.9833 O   0  0  0  0  0  0  0  0  0  0  0  0
    5.6042   -0.3139   -0.3828 C   0  0  0  0  0  0  0  0  0  0  0  0
    5.3301    0.0436   -1.7128 C   0  0  0  0  0  0  0  0  0  0  0  0
    6.7948    0.1385    0.2081 C   0  0  0  0  0  0  0  0  0  0  0  0
    6.2124    0.8586   -2.4267 C   0  0  0  0  0  0  0  0  0  0  0  0
    7.6769    0.9549   -0.5054 C   0  0  0  0  0  0  0  0  0  0  0  0
    7.3808    1.3130   -1.8188 C   0  0  0  0  0  0  0  0  0  0  0  0
    8.4686    2.3163   -2.6965 Cl  0  0  0  0  0  0  0  0  0  0  0  0
   -2.1615   -4.3629   -1.0664 H   0  0  0  0  0  0  0  0  0  0  0  0
   -0.9305   -2.4182   -0.8630 H   0  0  0  0  0  0  0  0  0  0  0  0
   -2.6070   -2.1231   -0.9214 H   0  0  0  0  0  0  0  0  0  0  0  0
   -2.5795   -1.8769    1.5385 H   0  0  0  0  0  0  0  0  0  0  0  0
   -0.8265   -1.7256    1.3614 H   0  0  0  0  0  0  0  0  0  0  0  0
   -1.2930   -4.3021    1.8720 H   0  0  0  0  0  0  0  0  0  0  0  0
   -0.8304   -6.3511   -0.3673 H   0  0  0  0  0  0  0  0  0  0  0  0
   -0.3027   -6.4985    1.3001 H   0  0  0  0  0  0  0  0  0  0  0  0
   -2.0321   -6.5469    0.9280 H   0  0  0  0  0  0  0  0  0  0  0  0
    0.8293   -4.5112    0.9575 H   0  0  0  0  0  0  0  0  0  0  0  0
   -4.1590   -0.0377   -0.0593 H   0  0  0  0  0  0  0  0  0  0  0  0
    0.2318    2.7109    2.0247 H   0  0  0  0  0  0  0  0  0  0  0  0
    0.8589   -0.7985   -0.4027 H   0  0  0  0  0  0  0  0  0  0  0  0
   -5.6137    1.4092   -0.7233 H   0  0  0  0  0  0  0  0  0  0  0  0
   -2.4232    4.3433   -0.5018 H   0  0  0  0  0  0  0  0  0  0  0  0
    2.6352    2.7162    2.5999 H   0  0  0  0  0  0  0  0  0  0  0  0
   -7.1685    3.1527   -1.4370 H   0  0  0  0  0  0  0  0  0  0  0  0
    4.1353    0.9993    1.7216 H   0  0  0  0  0  0  0  0  0  0  0  0
   -6.4240    5.4897   -1.6965 H   0  0  0  0  0  0  0  0  0  0  0  0
    4.9400   -2.2549    0.1421 H   0  0  0  0  0  0  0  0  0  0  0  0
    4.8116   -1.1279    1.4787 H   0  0  0  0  0  0  0  0  0  0  0  0
    4.4214   -0.3066   -2.1991 H   0  0  0  0  0  0  0  0  0  0  0  0
    7.0454   -0.1398    1.2305 H   0  0  0  0  0  0  0  0  0  0  0  0
    5.9814    1.1339   -3.4527 H   0  0  0  0  0  0  0  0  0  0  0  0
    8.5910    1.3055   -0.0336 H   0  0  0  0  0  0  0  0  0  0  0  0
  1  2  1  0
  2  3  1  0
  1  4  1  0
  5  1  1  0
  4  6  2  0
  4  7  1  0
  8  5  1  0
  5  9  1  0
  3 10  1  0
 10 11  2  0
 12 10  1  0
 11 13  1  0
 14 12  2  0
 12 15  1  0
 13 16  1  0
 13 14  1  0
 15 17  2  0
 18 15  1  0
 16 19  2  0
 20 16  1  0
 17 21  1  0
 22 18  2  0
 19 23  1  0
 24 20  2  0
 21 25  2  0
 25 22  1  0
 22 26  1  0
 23 27  2  0
 27 24  1  0
 24 28  1  0
 26 29  1  0
 28 30  1  0
 28 31  2  0
 29 32  1  0
 32 33  2  0
 34 32  1  0
 33 35  1  0
 36 34  2  0
 35 37  2  0
 37 36  1  0
 37 38  1  0
  1 39  1  6
  2 40  1  0
  2 41  1  0
  3 42  1  0
  3 43  1  0
  5 44  1  1
  8 45  1  0
  8 46  1  0
  8 47  1  0
  9 48  1  0
 11 49  1  0
 17 50  1  0
 18 51  1  0
 19 52  1  0
 20 53  1  0
 21 54  1  0
 23 55  1  0
 25 56  1  0
 27 57  1  0
 29 58  1  0
 29 59  1  0
 33 60  1  0
 34 61  1  0
 35 62  1  0
 36 63  1  0
M  CHG  4   2   1   7  -1  28   1  30  -1
M  END
>  <SMILES_raw>  (44) 
C[C@@H](O)[C@@H](C(O)=O)NCC1=CN(C2=CC=CC([N+]([O-])=O)=C2)N=C1C3=CC=CC(OCC4=CC=C(Cl)C=C4)=C3

>  <Protonation_Method>  (44) 
MolScrub

>  <Target_pH>  (44) 
7.4

$$$$
N-((3-(3-((4-chlorobenzyl)oxy)phenyl)-1-(3-nitrophenyl)-1H-pyrazol-4-yl)methyl)-L-valin
     RDKit          3D

 65 68  0  0  0  0  0  0  0  0999 V2000
   -2.5099   -1.6247    0.6035 C   0  0  2  0  0  0  0  0  0  0  0  0
   -1.1591   -1.2195    1.2311 N   0  0  0  0  0  0  0  0  0  0  0  0
   -1.1751    0.0338    2.0107 C   0  0  0  0  0  0  0  0  0  0  0  0
   -3.2803   -2.4913    1.6554 C   0  0  0  0  0  0  0  0  0  0  0  0
   -2.2226   -2.3346   -0.7321 C   0  0  0  0  0  0  0  0  0  0  0  0
   -4.5046   -2.6615    1.4849 O   0  0  0  0  0  0  0  0  0  0  0  0
   -2.4794   -2.8284    2.5922 O   0  0  0  0  0  0  0  0  0  0  0  0
   -1.4817   -3.6661   -0.5696 C   0  0  0  0  0  0  0  0  0  0  0  0
   -3.5032   -2.5507   -1.5427 C   0  0  0  0  0  0  0  0  0  0  0  0
   -1.1936    1.2573    1.1666 C   0  0  0  0  0  0  0  0  0  0  0  0
   -2.1337    2.2707    1.1795 C   0  0  0  0  0  0  0  0  0  0  0  0
   -0.2788    1.6462    0.1491 C   0  0  0  0  0  0  0  0  0  0  0  0
   -1.7747    3.1847    0.2145 N   0  0  0  0  0  0  0  0  0  0  0  0
   -0.6538    2.7901   -0.4312 N   0  0  0  0  0  0  0  0  0  0  0  0
    0.9023    0.9299   -0.3180 C   0  0  0  0  0  0  0  0  0  0  0  0
   -2.4271    4.4009   -0.1383 C   0  0  0  0  0  0  0  0  0  0  0  0
    1.0269    0.6017   -1.6723 C   0  0  0  0  0  0  0  0  0  0  0  0
    1.9006    0.5312    0.5790 C   0  0  0  0  0  0  0  0  0  0  0  0
   -1.8883    5.1973   -1.1640 C   0  0  0  0  0  0  0  0  0  0  0  0
   -3.5920    4.8211    0.5186 C   0  0  0  0  0  0  0  0  0  0  0  0
    2.1208   -0.1412   -2.1142 C   0  0  0  0  0  0  0  0  0  0  0  0
    3.0060   -0.2024    0.1370 C   0  0  0  0  0  0  0  0  0  0  0  0
   -2.5012    6.3981   -1.5330 C   0  0  0  0  0  0  0  0  0  0  0  0
   -4.1994    6.0310    0.1397 C   0  0  0  0  0  0  0  0  0  0  0  0
    3.1038   -0.5506   -1.2096 C   0  0  0  0  0  0  0  0  0  0  0  0
    3.8907   -0.5445    1.1214 O   0  0  0  0  0  0  0  0  0  0  0  0
   -3.6591    6.8204   -0.8834 C   0  0  0  0  0  0  0  0  0  0  0  0
   -5.4213    6.4737    0.8245 N   0  0  0  0  0  0  0  0  0  0  0  0
    5.2154   -0.9243    0.7309 C   0  0  0  0  0  0  0  0  0  0  0  0
   -5.8803    7.5850    0.5262 O   0  0  0  0  0  0  0  0  0  0  0  0
   -5.9184    5.7071    1.6608 O   0  0  0  0  0  0  0  0  0  0  0  0
    5.3501   -2.4143    0.5065 C   0  0  0  0  0  0  0  0  0  0  0  0
    6.1820   -2.8992   -0.5142 C   0  0  0  0  0  0  0  0  0  0  0  0
    4.6942   -3.3329    1.3403 C   0  0  0  0  0  0  0  0  0  0  0  0
    6.3314   -4.2738   -0.7144 C   0  0  0  0  0  0  0  0  0  0  0  0
    4.8441   -4.7073    1.1401 C   0  0  0  0  0  0  0  0  0  0  0  0
    5.6597   -5.1718    0.1118 C   0  0  0  0  0  0  0  0  0  0  0  0
    5.8457   -6.8638   -0.1360 Cl  0  0  0  0  0  0  0  0  0  0  0  0
   -3.0644   -0.6970    0.4232 H   0  0  0  0  0  0  0  0  0  0  0  0
   -1.0951   -1.9814    1.9518 H   0  0  0  0  0  0  0  0  0  0  0  0
   -0.3585   -1.3257    0.6079 H   0  0  0  0  0  0  0  0  0  0  0  0
   -2.0418   -0.0011    2.6803 H   0  0  0  0  0  0  0  0  0  0  0  0
   -0.2774    0.0209    2.6371 H   0  0  0  0  0  0  0  0  0  0  0  0
   -1.5806   -1.6729   -1.3298 H   0  0  0  0  0  0  0  0  0  0  0  0
   -2.0893   -4.4023   -0.0332 H   0  0  0  0  0  0  0  0  0  0  0  0
   -1.2367   -4.0894   -1.5494 H   0  0  0  0  0  0  0  0  0  0  0  0
   -0.5412   -3.5414   -0.0253 H   0  0  0  0  0  0  0  0  0  0  0  0
   -4.0564   -1.6127   -1.6577 H   0  0  0  0  0  0  0  0  0  0  0  0
   -4.1646   -3.2851   -1.0728 H   0  0  0  0  0  0  0  0  0  0  0  0
   -3.2633   -2.9188   -2.5462 H   0  0  0  0  0  0  0  0  0  0  0  0
   -3.0177    2.3959    1.7882 H   0  0  0  0  0  0  0  0  0  0  0  0
    0.2697    0.9194   -2.3876 H   0  0  0  0  0  0  0  0  0  0  0  0
    1.8451    0.8093    1.6293 H   0  0  0  0  0  0  0  0  0  0  0  0
   -0.9830    4.8948   -1.6904 H   0  0  0  0  0  0  0  0  0  0  0  0
   -4.0369    4.2324    1.3156 H   0  0  0  0  0  0  0  0  0  0  0  0
    2.2068   -0.4049   -3.1658 H   0  0  0  0  0  0  0  0  0  0  0  0
   -2.0719    7.0019   -2.3304 H   0  0  0  0  0  0  0  0  0  0  0  0
    3.9276   -1.1451   -1.5903 H   0  0  0  0  0  0  0  0  0  0  0  0
   -4.1247    7.7573   -1.1840 H   0  0  0  0  0  0  0  0  0  0  0  0
    5.5582   -0.3407   -0.1328 H   0  0  0  0  0  0  0  0  0  0  0  0
    5.8782   -0.6541    1.5615 H   0  0  0  0  0  0  0  0  0  0  0  0
    6.7207   -2.2108   -1.1624 H   0  0  0  0  0  0  0  0  0  0  0  0
    4.0615   -2.9810    2.1527 H   0  0  0  0  0  0  0  0  0  0  0  0
    6.9739   -4.6373   -1.5117 H   0  0  0  0  0  0  0  0  0  0  0  0
    4.3260   -5.4074    1.7903 H   0  0  0  0  0  0  0  0  0  0  0  0
  1  2  1  0
  2  3  1  0
  1  4  1  0
  5  1  1  0
  4  6  2  0
  4  7  1  0
  8  5  1  0
  5  9  1  0
  3 10  1  0
 10 11  2  0
 12 10  1  0
 11 13  1  0
 14 12  2  0
 12 15  1  0
 13 16  1  0
 13 14  1  0
 15 17  2  0
 18 15  1  0
 16 19  2  0
 20 16  1  0
 17 21  1  0
 22 18  2  0
 19 23  1  0
 24 20  2  0
 21 25  2  0
 25 22  1  0
 22 26  1  0
 23 27  2  0
 27 24  1  0
 24 28  1  0
 26 29  1  0
 28 30  1  0
 28 31  2  0
 29 32  1  0
 32 33  2  0
 34 32  1  0
 33 35  1  0
 36 34  2  0
 35 37  2  0
 37 36  1  0
 37 38  1  0
  1 39  1  6
  2 40  1  0
  2 41  1  0
  3 42  1  0
  3 43  1  0
  5 44  1  0
  8 45  1  0
  8 46  1  0
  8 47  1  0
  9 48  1  0
  9 49  1  0
  9 50  1  0
 11 51  1  0
 17 52  1  0
 18 53  1  0
 19 54  1  0
 20 55  1  0
 21 56  1  0
 23 57  1  0
 25 58  1  0
 27 59  1  0
 29 60  1  0
 29 61  1  0
 33 62  1  0
 34 63  1  0
 35 64  1  0
 36 65  1  0
M  CHG  4   2   1   7  -1  28   1  30  -1
M  END
>  <SMILES_raw>  (45) 
CC(C)[C@@H](C(O)=O)NCC1=CN(C2=CC=CC([N+]([O-])=O)=C2)N=C1C3=CC=CC(OCC4=CC=C(Cl)C=C4)=C3

>  <Protonation_Method>  (45) 
MolScrub

>  <Target_pH>  (45) 
7.4

$$$$
N-((3-(3-((4-chlorobenzyl)oxy)phenyl)-1-(3-nitrophenyl)-1H-pyrazol-4-yl)methyl)-L-tryptophan
     RDKit          3D

 73 78  0  0  0  0  0  0  0  0999 V2000
   -3.7992   -0.1677   -1.3785 C   0  0  2  0  0  0  0  0  0  0  0  0
   -2.7580    0.9382   -1.1480 N   0  0  0  0  0  0  0  0  0  0  0  0
   -1.6671    0.7710   -0.1895 C   0  0  0  0  0  0  0  0  0  0  0  0
   -4.9052    0.4667   -2.2880 C   0  0  0  0  0  0  0  0  0  0  0  0
   -4.5035   -0.5578   -0.0705 C   0  0  0  0  0  0  0  0  0  0  0  0
   -5.4728   -0.2620   -3.1261 O   0  0  0  0  0  0  0  0  0  0  0  0
   -4.9331    1.7325   -2.0982 O   0  0  0  0  0  0  0  0  0  0  0  0
   -4.9913   -1.9773   -0.0818 C   0  0  0  0  0  0  0  0  0  0  0  0
   -6.1648   -2.4204   -0.6612 C   0  0  0  0  0  0  0  0  0  0  0  0
   -4.3449   -3.1296    0.4786 C   0  0  0  0  0  0  0  0  0  0  0  0
   -6.2490   -3.7755   -0.4942 N   0  0  0  0  0  0  0  0  0  0  0  0
   -5.1559   -4.2343    0.2061 C   0  0  0  0  0  0  0  0  0  0  0  0
   -3.1421   -3.3413    1.1876 C   0  0  0  0  0  0  0  0  0  0  0  0
   -4.8291   -5.5361    0.6067 C   0  0  0  0  0  0  0  0  0  0  0  0
   -2.8012   -4.6384    1.5987 C   0  0  0  0  0  0  0  0  0  0  0  0
   -3.6362   -5.7179    1.3119 C   0  0  0  0  0  0  0  0  0  0  0  0
   -0.6856    1.8789   -0.3168 C   0  0  0  0  0  0  0  0  0  0  0  0
   -0.9468    3.2408   -0.2824 C   0  0  0  0  0  0  0  0  0  0  0  0
    0.7170    1.7972   -0.5381 C   0  0  0  0  0  0  0  0  0  0  0  0
    0.2455    3.8957   -0.4986 N   0  0  0  0  0  0  0  0  0  0  0  0
    1.2543    3.0147   -0.6706 N   0  0  0  0  0  0  0  0  0  0  0  0
    1.5531    0.6073   -0.6654 C   0  0  0  0  0  0  0  0  0  0  0  0
    0.4900    5.2970   -0.5582 C   0  0  0  0  0  0  0  0  0  0  0  0
    2.4069    0.4723   -1.7645 C   0  0  0  0  0  0  0  0  0  0  0  0
    1.5184   -0.4040    0.3039 C   0  0  0  0  0  0  0  0  0  0  0  0
   -0.5498    6.2262   -0.3919 C   0  0  0  0  0  0  0  0  0  0  0  0
    1.7989    5.7549   -0.7931 C   0  0  0  0  0  0  0  0  0  0  0  0
    3.1960   -0.6692   -1.9013 C   0  0  0  0  0  0  0  0  0  0  0  0
    2.3101   -1.5509    0.1720 C   0  0  0  0  0  0  0  0  0  0  0  0
   -0.2825    7.5974   -0.4393 C   0  0  0  0  0  0  0  0  0  0  0  0
    2.0508    7.1315   -0.8551 C   0  0  0  0  0  0  0  0  0  0  0  0
    3.1447   -1.6811   -0.9370 C   0  0  0  0  0  0  0  0  0  0  0  0
    2.1774   -2.4472    1.1972 O   0  0  0  0  0  0  0  0  0  0  0  0
    1.0160    8.0563   -0.6693 C   0  0  0  0  0  0  0  0  0  0  0  0
    3.4124    7.6104   -1.1223 N   0  0  0  0  0  0  0  0  0  0  0  0
    3.0281   -3.6005    1.2210 C   0  0  0  0  0  0  0  0  0  0  0  0
    3.5613    8.8254   -1.3366 O   0  0  0  0  0  0  0  0  0  0  0  0
    4.3307    6.7755   -1.1207 O   0  0  0  0  0  0  0  0  0  0  0  0
    4.4456   -3.3001    1.6608 C   0  0  0  0  0  0  0  0  0  0  0  0
    4.7213   -2.2757    2.5817 C   0  0  0  0  0  0  0  0  0  0  0  0
    5.5072   -4.0801    1.1775 C   0  0  0  0  0  0  0  0  0  0  0  0
    6.0323   -2.0112    2.9839 C   0  0  0  0  0  0  0  0  0  0  0  0
    6.8193   -3.8163    1.5804 C   0  0  0  0  0  0  0  0  0  0  0  0
    7.0771   -2.7793    2.4745 C   0  0  0  0  0  0  0  0  0  0  0  0
    8.6959   -2.4562    2.9625 Cl  0  0  0  0  0  0  0  0  0  0  0  0
   -3.2688   -0.9932   -1.8687 H   0  0  0  0  0  0  0  0  0  0  0  0
   -3.3676    1.7698   -0.9886 H   0  0  0  0  0  0  0  0  0  0  0  0
   -2.4006    1.1597   -2.0860 H   0  0  0  0  0  0  0  0  0  0  0  0
   -1.2190   -0.2092   -0.3853 H   0  0  0  0  0  0  0  0  0  0  0  0
   -2.0936    0.7814    0.8185 H   0  0  0  0  0  0  0  0  0  0  0  0
   -5.3540    0.1098    0.1446 H   0  0  0  0  0  0  0  0  0  0  0  0
   -3.8305   -0.4535    0.7871 H   0  0  0  0  0  0  0  0  0  0  0  0
   -6.9339   -1.8853   -1.2099 H   0  0  0  0  0  0  0  0  0  0  0  0
   -7.0023   -4.3574   -0.8404 H   0  0  0  0  0  0  0  0  0  0  0  0
   -2.4827   -2.5145    1.4262 H   0  0  0  0  0  0  0  0  0  0  0  0
   -5.4779   -6.3771    0.3802 H   0  0  0  0  0  0  0  0  0  0  0  0
   -1.8767   -4.8049    2.1494 H   0  0  0  0  0  0  0  0  0  0  0  0
   -3.3584   -6.7178    1.6427 H   0  0  0  0  0  0  0  0  0  0  0  0
   -1.8759    3.7766   -0.1383 H   0  0  0  0  0  0  0  0  0  0  0  0
    2.4676    1.2600   -2.5138 H   0  0  0  0  0  0  0  0  0  0  0  0
    0.8960   -0.2995    1.1886 H   0  0  0  0  0  0  0  0  0  0  0  0
   -1.5792    5.9193   -0.2213 H   0  0  0  0  0  0  0  0  0  0  0  0
    2.6075    5.0421   -0.9459 H   0  0  0  0  0  0  0  0  0  0  0  0
    3.8633   -0.7644   -2.7538 H   0  0  0  0  0  0  0  0  0  0  0  0
   -1.0817    8.3101   -0.2683 H   0  0  0  0  0  0  0  0  0  0  0  0
    3.7854   -2.5460   -1.0765 H   0  0  0  0  0  0  0  0  0  0  0  0
    1.2021    9.1260   -0.7021 H   0  0  0  0  0  0  0  0  0  0  0  0
    2.9923   -4.1251    0.2584 H   0  0  0  0  0  0  0  0  0  0  0  0
    2.5973   -4.2884    1.9590 H   0  0  0  0  0  0  0  0  0  0  0  0
    3.9133   -1.6628    2.9811 H   0  0  0  0  0  0  0  0  0  0  0  0
    5.3239   -4.8933    0.4790 H   0  0  0  0  0  0  0  0  0  0  0  0
    6.2267   -1.2034    3.6834 H   0  0  0  0  0  0  0  0  0  0  0  0
    7.6353   -4.4189    1.1898 H   0  0  0  0  0  0  0  0  0  0  0  0
  1  2  1  0
  2  3  1  0
  1  4  1  0
  1  5  1  0
  4  6  2  0
  4  7  1  0
  5  8  1  0
  8  9  2  0
 10  8  1  0
  9 11  1  0
 12 10  2  0
 10 13  1  0
 11 12  1  0
 14 12  1  0
 13 15  2  0
 16 14  2  0
 15 16  1  0
  3 17  1  0
 17 18  2  0
 19 17  1  0
 18 20  1  0
 21 19  2  0
 19 22  1  0
 20 23  1  0
 20 21  1  0
 22 24  2  0
 25 22  1  0
 23 26  2  0
 27 23  1  0
 24 28  1  0
 29 25  2  0
 26 30  1  0
 31 27  2  0
 28 32  2  0
 32 29  1  0
 29 33  1  0
 30 34  2  0
 34 31  1  0
 31 35  1  0
 33 36  1  0
 35 37  1  0
 35 38  2  0
 36 39  1  0
 39 40  2  0
 41 39  1  0
 40 42  1  0
 43 41  2  0
 42 44  2  0
 44 43  1  0
 44 45  1  0
  1 46  1  6
  2 47  1  0
  2 48  1  0
  3 49  1  0
  3 50  1  0
  5 51  1  0
  5 52  1  0
  9 53  1  0
 11 54  1  0
 13 55  1  0
 14 56  1  0
 15 57  1  0
 16 58  1  0
 18 59  1  0
 24 60  1  0
 25 61  1  0
 26 62  1  0
 27 63  1  0
 28 64  1  0
 30 65  1  0
 32 66  1  0
 34 67  1  0
 36 68  1  0
 36 69  1  0
 40 70  1  0
 41 71  1  0
 42 72  1  0
 43 73  1  0
M  CHG  4   2   1   7  -1  35   1  37  -1
M  END
>  <SMILES_raw>  (46) 
O=C(O)[C@H](CC1=CNC2=C1C=CC=C2)NCC3=CN(C4=CC=CC([N+]([O-])=O)=C4)N=C3C5=CC=CC(OCC6=CC=C(Cl)C=C6)=C5

>  <Protonation_Method>  (46) 
MolScrub

>  <Target_pH>  (46) 
7.4

$$$$
N-((3-(3-((4-chlorobenzyl)oxy)phenyl)-1-(3-nitrophenyl)-1H-pyrazol-4-yl)methyl)-L-tyrosin
     RDKit          3D

 70 74  0  0  0  0  0  0  0  0999 V2000
   -2.7132   -1.2674   -1.4900 C   0  0  2  0  0  0  0  0  0  0  0  0
   -1.8762   -0.0247   -1.1328 N   0  0  0  0  0  0  0  0  0  0  0  0
   -1.5541    0.1730    0.2831 C   0  0  0  0  0  0  0  0  0  0  0  0
   -2.0904   -1.9143   -2.7633 C   0  0  0  0  0  0  0  0  0  0  0  0
   -4.1773   -0.8671   -1.6799 C   0  0  0  0  0  0  0  0  0  0  0  0
   -0.9550   -1.3738   -2.9895 O   0  0  0  0  0  0  0  0  0  0  0  0
   -2.7416   -2.7983   -3.3572 O   0  0  0  0  0  0  0  0  0  0  0  0
   -5.0902   -1.6693   -0.7812 C   0  0  0  0  0  0  0  0  0  0  0  0
   -5.4534   -2.9754   -1.1460 C   0  0  0  0  0  0  0  0  0  0  0  0
   -5.5616   -1.1399    0.4282 C   0  0  0  0  0  0  0  0  0  0  0  0
   -6.2775   -3.7399   -0.3185 C   0  0  0  0  0  0  0  0  0  0  0  0
   -6.3825   -1.9075    1.2564 C   0  0  0  0  0  0  0  0  0  0  0  0
   -6.7346   -3.1984    0.8775 C   0  0  0  0  0  0  0  0  0  0  0  0
   -7.5418   -3.9082    1.7161 O   0  0  0  0  0  0  0  0  0  0  0  0
   -0.6969    1.3699    0.4696 C   0  0  0  0  0  0  0  0  0  0  0  0
   -1.0595    2.6965    0.3173 C   0  0  0  0  0  0  0  0  0  0  0  0
    0.6683    1.4227    0.8680 C   0  0  0  0  0  0  0  0  0  0  0  0
    0.0469    3.4636    0.6107 N   0  0  0  0  0  0  0  0  0  0  0  0
    1.0884    2.6878    0.9772 N   0  0  0  0  0  0  0  0  0  0  0  0
    1.5710    0.3185    1.1774 C   0  0  0  0  0  0  0  0  0  0  0  0
    0.1747    4.8817    0.5717 C   0  0  0  0  0  0  0  0  0  0  0  0
    2.2625    0.3062    2.3945 C   0  0  0  0  0  0  0  0  0  0  0  0
    1.7660   -0.7307    0.2702 C   0  0  0  0  0  0  0  0  0  0  0  0
    1.4179    5.4675    0.8670 C   0  0  0  0  0  0  0  0  0  0  0  0
   -0.9112    5.7034    0.2410 C   0  0  0  0  0  0  0  0  0  0  0  0
    3.1178   -0.7503    2.7055 C   0  0  0  0  0  0  0  0  0  0  0  0
    2.6214   -1.7944    0.5788 C   0  0  0  0  0  0  0  0  0  0  0  0
    1.5813    6.8551    0.8280 C   0  0  0  0  0  0  0  0  0  0  0  0
   -0.7372    7.0981    0.2111 C   0  0  0  0  0  0  0  0  0  0  0  0
    3.2935   -1.8011    1.8012 C   0  0  0  0  0  0  0  0  0  0  0  0
    2.7116   -2.7408   -0.4031 O   0  0  0  0  0  0  0  0  0  0  0  0
    0.5048    7.6767    0.4988 C   0  0  0  0  0  0  0  0  0  0  0  0
   -1.8788    7.9609   -0.1243 N   0  0  0  0  0  0  0  0  0  0  0  0
    3.5448   -3.8840   -0.1944 C   0  0  0  0  0  0  0  0  0  0  0  0
   -2.9571    7.4068   -0.3857 O   0  0  0  0  0  0  0  0  0  0  0  0
   -1.6980    9.1861   -0.1225 O   0  0  0  0  0  0  0  0  0  0  0  0
    5.0073   -3.5993   -0.4564 C   0  0  0  0  0  0  0  0  0  0  0  0
    5.4006   -2.8376   -1.5682 C   0  0  0  0  0  0  0  0  0  0  0  0
    5.9952   -4.1297    0.3866 C   0  0  0  0  0  0  0  0  0  0  0  0
    6.7514   -2.5885   -1.8173 C   0  0  0  0  0  0  0  0  0  0  0  0
    7.3465   -3.8790    0.1388 C   0  0  0  0  0  0  0  0  0  0  0  0
    7.7184   -3.1076   -0.9605 C   0  0  0  0  0  0  0  0  0  0  0  0
    9.3830   -2.7979   -1.2613 Cl  0  0  0  0  0  0  0  0  0  0  0  0
   -2.5618   -1.9788   -0.6687 H   0  0  0  0  0  0  0  0  0  0  0  0
   -1.0063   -0.2521   -1.6822 H   0  0  0  0  0  0  0  0  0  0  0  0
   -2.2228    0.8045   -1.6201 H   0  0  0  0  0  0  0  0  0  0  0  0
   -1.0807   -0.7415    0.6519 H   0  0  0  0  0  0  0  0  0  0  0  0
   -2.5037    0.3043    0.8132 H   0  0  0  0  0  0  0  0  0  0  0  0
   -4.3334    0.1974   -1.4639 H   0  0  0  0  0  0  0  0  0  0  0  0
   -4.5068   -0.9974   -2.7180 H   0  0  0  0  0  0  0  0  0  0  0  0
   -5.0921   -3.4045   -2.0830 H   0  0  0  0  0  0  0  0  0  0  0  0
   -5.3061   -0.1286    0.7347 H   0  0  0  0  0  0  0  0  0  0  0  0
   -6.5493   -4.7450   -0.6280 H   0  0  0  0  0  0  0  0  0  0  0  0
   -6.7540   -1.4999    2.1928 H   0  0  0  0  0  0  0  0  0  0  0  0
   -7.7236   -4.7720    1.3088 H   0  0  0  0  0  0  0  0  0  0  0  0
   -2.0016    3.1399    0.0320 H   0  0  0  0  0  0  0  0  0  0  0  0
    2.1436    1.1252    3.1019 H   0  0  0  0  0  0  0  0  0  0  0  0
    1.2795   -0.7276   -0.7036 H   0  0  0  0  0  0  0  0  0  0  0  0
    2.2792    4.8511    1.1275 H   0  0  0  0  0  0  0  0  0  0  0  0
   -1.8877    5.2879    0.0152 H   0  0  0  0  0  0  0  0  0  0  0  0
    3.6587   -0.7505    3.6496 H   0  0  0  0  0  0  0  0  0  0  0  0
    2.5529    7.2908    1.0519 H   0  0  0  0  0  0  0  0  0  0  0  0
    3.9767   -2.5960    2.0782 H   0  0  0  0  0  0  0  0  0  0  0  0
    0.6494    8.7550    0.4752 H   0  0  0  0  0  0  0  0  0  0  0  0
    3.2232   -4.6441   -0.9167 H   0  0  0  0  0  0  0  0  0  0  0  0
    3.3704   -4.3203    0.7966 H   0  0  0  0  0  0  0  0  0  0  0  0
    4.6496   -2.4290   -2.2427 H   0  0  0  0  0  0  0  0  0  0  0  0
    5.7204   -4.7383    1.2460 H   0  0  0  0  0  0  0  0  0  0  0  0
    7.0387   -1.9914   -2.6781 H   0  0  0  0  0  0  0  0  0  0  0  0
    8.1024   -4.2884    0.8037 H   0  0  0  0  0  0  0  0  0  0  0  0
  1  2  1  0
  2  3  1  0
  1  4  1  0
  5  1  1  0
  4  6  2  0
  4  7  1  0
  8  5  1  0
  9  8  2  0
  8 10  1  0
 11  9  1  0
 10 12  2  0
 13 11  2  0
 12 13  1  0
 14 13  1  0
  3 15  1  0
 15 16  2  0
 17 15  1  0
 16 18  1  0
 19 17  2  0
 17 20  1  0
 18 21  1  0
 18 19  1  0
 20 22  2  0
 23 20  1  0
 21 24  2  0
 25 21  1  0
 22 26  1  0
 27 23  2  0
 24 28  1  0
 29 25  2  0
 26 30  2  0
 30 27  1  0
 27 31  1  0
 28 32  2  0
 32 29  1  0
 29 33  1  0
 31 34  1  0
 33 35  1  0
 33 36  2  0
 34 37  1  0
 37 38  2  0
 39 37  1  0
 38 40  1  0
 41 39  2  0
 40 42  2  0
 42 41  1  0
 42 43  1  0
  1 44  1  1
  2 45  1  0
  2 46  1  0
  3 47  1  0
  3 48  1  0
  5 49  1  0
  5 50  1  0
  9 51  1  0
 10 52  1  0
 11 53  1  0
 12 54  1  0
 14 55  1  0
 16 56  1  0
 22 57  1  0
 23 58  1  0
 24 59  1  0
 25 60  1  0
 26 61  1  0
 28 62  1  0
 30 63  1  0
 32 64  1  0
 34 65  1  0
 34 66  1  0
 38 67  1  0
 39 68  1  0
 40 69  1  0
 41 70  1  0
M  CHG  4   2   1   7  -1  33   1  35  -1
M  END
>  <SMILES_raw>  (47) 
OC1=CC=C(C=C1)C[C@@H](C(O)=O)NCC2=CN(C3=CC=CC([N+]([O-])=O)=C3)N=C2C4=CC=CC(OCC5=CC=C(Cl)C=C5)=C4

>  <Protonation_Method>  (47) 
MolScrub

>  <Target_pH>  (47) 
7.4

$$$$
N-((3-(4-(benzyloxy)phenyl)-1-(4-chlorophenyl)-1H-pyrazol-4-yl)methyl)-L-alanin
     RDKit          3D

 57 60  0  0  0  0  0  0  0  0999 V2000
   -2.5775    3.9356   -0.9414 C   0  0  2  0  0  0  0  0  0  0  0  0
   -2.6962    2.4422   -0.6212 N   0  0  0  0  0  0  0  0  0  0  0  0
   -1.6659    1.5636   -1.1837 C   0  0  0  0  0  0  0  0  0  0  0  0
   -2.7008    4.7432    0.3848 C   0  0  0  0  0  0  0  0  0  0  0  0
   -3.6448    4.2980   -1.9541 C   0  0  0  0  0  0  0  0  0  0  0  0
   -2.8079    5.9837    0.3043 O   0  0  0  0  0  0  0  0  0  0  0  0
   -2.6732    3.9334    1.3707 O   0  0  0  0  0  0  0  0  0  0  0  0
   -1.9239    0.1409   -0.8525 C   0  0  0  0  0  0  0  0  0  0  0  0
   -2.9929   -0.6393   -1.2560 C   0  0  0  0  0  0  0  0  0  0  0  0
   -1.1427   -0.7285   -0.0424 C   0  0  0  0  0  0  0  0  0  0  0  0
   -2.8355   -1.8844   -0.6850 N   0  0  0  0  0  0  0  0  0  0  0  0
   -1.7138   -1.9321    0.0658 N   0  0  0  0  0  0  0  0  0  0  0  0
    0.1119   -0.4431    0.6427 C   0  0  0  0  0  0  0  0  0  0  0  0
   -3.6815   -3.0233   -0.8064 C   0  0  0  0  0  0  0  0  0  0  0  0
    1.2440   -0.0401   -0.0757 C   0  0  0  0  0  0  0  0  0  0  0  0
    0.1969   -0.5821    2.0312 C   0  0  0  0  0  0  0  0  0  0  0  0
   -4.8470   -2.9881   -1.5857 C   0  0  0  0  0  0  0  0  0  0  0  0
   -3.3403   -4.2077   -0.1313 C   0  0  0  0  0  0  0  0  0  0  0  0
    2.4403    0.2500    0.5916 C   0  0  0  0  0  0  0  0  0  0  0  0
    1.3936   -0.2951    2.6924 C   0  0  0  0  0  0  0  0  0  0  0  0
   -5.6569   -4.1257   -1.6847 C   0  0  0  0  0  0  0  0  0  0  0  0
   -4.1531   -5.3402   -0.2344 C   0  0  0  0  0  0  0  0  0  0  0  0
    2.5140    0.1378    1.9800 C   0  0  0  0  0  0  0  0  0  0  0  0
   -5.3075   -5.2947   -1.0108 C   0  0  0  0  0  0  0  0  0  0  0  0
    3.6256    0.3710    2.7407 O   0  0  0  0  0  0  0  0  0  0  0  0
   -6.3087   -6.6870   -1.1404 Cl  0  0  0  0  0  0  0  0  0  0  0  0
    4.6240    1.2476    2.2078 C   0  0  0  0  0  0  0  0  0  0  0  0
    5.6937    0.5336    1.4106 C   0  0  0  0  0  0  0  0  0  0  0  0
    6.0261   -0.8053    1.6613 C   0  0  0  0  0  0  0  0  0  0  0  0
    6.4126    1.2353    0.4305 C   0  0  0  0  0  0  0  0  0  0  0  0
    7.0333   -1.4362    0.9288 C   0  0  0  0  0  0  0  0  0  0  0  0
    7.4203    0.6032   -0.3003 C   0  0  0  0  0  0  0  0  0  0  0  0
    7.7280   -0.7328   -0.0531 C   0  0  0  0  0  0  0  0  0  0  0  0
   -1.5736    4.1005   -1.3487 H   0  0  0  0  0  0  0  0  0  0  0  0
   -2.5842    2.4879    0.4268 H   0  0  0  0  0  0  0  0  0  0  0  0
   -3.6574    2.1137   -0.7293 H   0  0  0  0  0  0  0  0  0  0  0  0
   -0.7024    1.9155   -0.8053 H   0  0  0  0  0  0  0  0  0  0  0  0
   -1.6830    1.7003   -2.2706 H   0  0  0  0  0  0  0  0  0  0  0  0
   -3.5399    5.3405   -2.2730 H   0  0  0  0  0  0  0  0  0  0  0  0
   -3.5753    3.6671   -2.8462 H   0  0  0  0  0  0  0  0  0  0  0  0
   -4.6494    4.1845   -1.5319 H   0  0  0  0  0  0  0  0  0  0  0  0
   -3.8360   -0.4080   -1.8890 H   0  0  0  0  0  0  0  0  0  0  0  0
    1.2207    0.0243   -1.1605 H   0  0  0  0  0  0  0  0  0  0  0  0
   -0.6639   -0.9175    2.6064 H   0  0  0  0  0  0  0  0  0  0  0  0
   -5.1586   -2.1018   -2.1285 H   0  0  0  0  0  0  0  0  0  0  0  0
   -2.4415   -4.2657    0.4820 H   0  0  0  0  0  0  0  0  0  0  0  0
    3.3050    0.5297   -0.0018 H   0  0  0  0  0  0  0  0  0  0  0  0
    1.4508   -0.4070    3.7728 H   0  0  0  0  0  0  0  0  0  0  0  0
   -6.5599   -4.0943   -2.2900 H   0  0  0  0  0  0  0  0  0  0  0  0
   -3.8774   -6.2497    0.2932 H   0  0  0  0  0  0  0  0  0  0  0  0
    4.1640    2.0612    1.6320 H   0  0  0  0  0  0  0  0  0  0  0  0
    5.1156    1.7179    3.0679 H   0  0  0  0  0  0  0  0  0  0  0  0
    5.4979   -1.3678    2.4291 H   0  0  0  0  0  0  0  0  0  0  0  0
    6.1934    2.2820    0.2311 H   0  0  0  0  0  0  0  0  0  0  0  0
    7.2768   -2.4766    1.1284 H   0  0  0  0  0  0  0  0  0  0  0  0
    7.9697    1.1548   -1.0590 H   0  0  0  0  0  0  0  0  0  0  0  0
    8.5139   -1.2248   -0.6202 H   0  0  0  0  0  0  0  0  0  0  0  0
  1  2  1  0
  2  3  1  0
  1  4  1  0
  5  1  1  0
  4  6  2  0
  4  7  1  0
  3  8  1  0
  8  9  2  0
 10  8  1  0
  9 11  1  0
 12 10  2  0
 10 13  1  0
 11 14  1  0
 11 12  1  0
 13 15  2  0
 16 13  1  0
 14 17  2  0
 18 14  1  0
 15 19  1  0
 20 16  2  0
 17 21  1  0
 22 18  2  0
 19 23  2  0
 23 20  1  0
 21 24  2  0
 24 22  1  0
 23 25  1  0
 24 26  1  0
 25 27  1  0
 27 28  1  0
 28 29  2  0
 30 28  1  0
 29 31  1  0
 32 30  2  0
 31 33  2  0
 33 32  1  0
  1 34  1  6
  2 35  1  0
  2 36  1  0
  3 37  1  0
  3 38  1  0
  5 39  1  0
  5 40  1  0
  5 41  1  0
  9 42  1  0
 15 43  1  0
 16 44  1  0
 17 45  1  0
 18 46  1  0
 19 47  1  0
 20 48  1  0
 21 49  1  0
 22 50  1  0
 27 51  1  0
 27 52  1  0
 29 53  1  0
 30 54  1  0
 31 55  1  0
 32 56  1  0
 33 57  1  0
M  CHG  2   2   1   7  -1
M  END
>  <SMILES_raw>  (48) 
C[C@@H](C(O)=O)NCC1=CN(C2=CC=C(Cl)C=C2)N=C1C3=CC=C(OCC4=CC=CC=C4)C=C3

>  <Protonation_Method>  (48) 
MolScrub

>  <Target_pH>  (48) 
7.4

$$$$
N-((3-(4-(benzyloxy)phenyl)-1-(4-chlorophenyl)-1H-pyrazol-4-yl)methyl)-L-arginin
     RDKit          3D

 71 74  0  0  0  0  0  0  0  0999 V2000
    5.8828    0.5115   -3.4392 N   0  0  0  0  0  0  0  0  0  0  0  0
    6.6402    0.7159   -2.3638 C   0  0  0  0  0  0  0  0  0  0  0  0
    6.6447   -0.1467   -1.3256 N   0  0  0  0  0  0  0  0  0  0  0  0
    7.4239    1.7996   -2.3256 N   0  0  0  0  0  0  0  0  0  0  0  0
    6.1543   -1.5266   -1.3448 C   0  0  0  0  0  0  0  0  0  0  0  0
    4.6868   -1.7228   -0.9522 C   0  0  0  0  0  0  0  0  0  0  0  0
    4.2252   -0.9396    0.2945 C   0  0  0  0  0  0  0  0  0  0  0  0
    3.2423    0.2224    0.0350 C   0  0  2  0  0  0  0  0  0  0  0  0
    1.9089   -0.2659   -0.5237 N   0  0  0  0  0  0  0  0  0  0  0  0
    3.9662    1.1426   -0.9832 C   0  0  0  0  0  0  0  0  0  0  0  0
    1.1105   -1.2814    0.1904 C   0  0  0  0  0  0  0  0  0  0  0  0
    4.8528    1.9129   -0.5494 O   0  0  0  0  0  0  0  0  0  0  0  0
    3.6234    0.8867   -2.1858 O   0  0  0  0  0  0  0  0  0  0  0  0
    0.5501   -0.7887    1.4708 C   0  0  0  0  0  0  0  0  0  0  0  0
    1.1793   -0.6635    2.6962 C   0  0  0  0  0  0  0  0  0  0  0  0
   -0.7725   -0.3282    1.7156 C   0  0  0  0  0  0  0  0  0  0  0  0
    0.2662   -0.1242    3.5817 N   0  0  0  0  0  0  0  0  0  0  0  0
   -0.9228    0.0852    2.9739 N   0  0  0  0  0  0  0  0  0  0  0  0
   -1.8803   -0.2522    0.7760 C   0  0  0  0  0  0  0  0  0  0  0  0
    0.4571    0.2177    4.9499 C   0  0  0  0  0  0  0  0  0  0  0  0
   -2.5471   -1.4151    0.3743 C   0  0  0  0  0  0  0  0  0  0  0  0
   -2.2834    0.9857    0.2696 C   0  0  0  0  0  0  0  0  0  0  0  0
   -0.6185    0.7482    5.6818 C   0  0  0  0  0  0  0  0  0  0  0  0
    1.6969    0.0443    5.5803 C   0  0  0  0  0  0  0  0  0  0  0  0
   -3.6094   -1.3414   -0.5348 C   0  0  0  0  0  0  0  0  0  0  0  0
   -3.3349    1.0518   -0.6464 C   0  0  0  0  0  0  0  0  0  0  0  0
   -0.4556    1.1014    7.0244 C   0  0  0  0  0  0  0  0  0  0  0  0
    1.8539    0.3999    6.9253 C   0  0  0  0  0  0  0  0  0  0  0  0
   -4.0071   -0.1062   -1.0470 C   0  0  0  0  0  0  0  0  0  0  0  0
    0.7797    0.9293    7.6392 C   0  0  0  0  0  0  0  0  0  0  0  0
   -5.0199    0.1045   -1.9386 O   0  0  0  0  0  0  0  0  0  0  0  0
    0.9858    1.3713    9.2884 Cl  0  0  0  0  0  0  0  0  0  0  0  0
   -5.9047   -0.9870   -2.1948 C   0  0  0  0  0  0  0  0  0  0  0  0
   -7.0076   -0.5207   -3.1151 C   0  0  0  0  0  0  0  0  0  0  0  0
   -8.3523   -0.7547   -2.7931 C   0  0  0  0  0  0  0  0  0  0  0  0
   -6.7046    0.1224   -4.3251 C   0  0  0  0  0  0  0  0  0  0  0  0
   -9.3695   -0.3431   -3.6559 C   0  0  0  0  0  0  0  0  0  0  0  0
   -7.7231    0.5334   -5.1865 C   0  0  0  0  0  0  0  0  0  0  0  0
   -9.0551    0.3006   -4.8508 C   0  0  0  0  0  0  0  0  0  0  0  0
    5.9710    1.0931   -4.2575 H   0  0  0  0  0  0  0  0  0  0  0  0
    4.9024    0.2770   -3.2185 H   0  0  0  0  0  0  0  0  0  0  0  0
    7.1260    0.1906   -0.5021 H   0  0  0  0  0  0  0  0  0  0  0  0
    7.8686    2.0781   -1.4624 H   0  0  0  0  0  0  0  0  0  0  0  0
    7.3595    2.4987   -3.0501 H   0  0  0  0  0  0  0  0  0  0  0  0
    6.3487   -1.9610   -2.3314 H   0  0  0  0  0  0  0  0  0  0  0  0
    6.7887   -2.0805   -0.6449 H   0  0  0  0  0  0  0  0  0  0  0  0
    4.0462   -1.5253   -1.8154 H   0  0  0  0  0  0  0  0  0  0  0  0
    4.5515   -2.7920   -0.7471 H   0  0  0  0  0  0  0  0  0  0  0  0
    3.7596   -1.6477    0.9870 H   0  0  0  0  0  0  0  0  0  0  0  0
    5.0967   -0.5603    0.8378 H   0  0  0  0  0  0  0  0  0  0  0  0
    3.0186    0.7746    0.9523 H   0  0  0  0  0  0  0  0  0  0  0  0
    2.1111   -0.5237   -1.5055 H   0  0  0  0  0  0  0  0  0  0  0  0
    1.3335    0.5791   -0.6513 H   0  0  0  0  0  0  0  0  0  0  0  0
    1.7336   -2.1669    0.3374 H   0  0  0  0  0  0  0  0  0  0  0  0
    0.3154   -1.5680   -0.5037 H   0  0  0  0  0  0  0  0  0  0  0  0
    2.1848   -0.9044    3.0046 H   0  0  0  0  0  0  0  0  0  0  0  0
   -2.2680   -2.3843    0.7843 H   0  0  0  0  0  0  0  0  0  0  0  0
   -1.8058    1.9061    0.5997 H   0  0  0  0  0  0  0  0  0  0  0  0
   -1.5953    0.8910    5.2236 H   0  0  0  0  0  0  0  0  0  0  0  0
    2.5623   -0.3578    5.0662 H   0  0  0  0  0  0  0  0  0  0  0  0
   -4.1112   -2.2627   -0.8117 H   0  0  0  0  0  0  0  0  0  0  0  0
   -3.6541    2.0186   -1.0309 H   0  0  0  0  0  0  0  0  0  0  0  0
   -1.2964    1.5149    7.5786 H   0  0  0  0  0  0  0  0  0  0  0  0
    2.8173    0.2643    7.4137 H   0  0  0  0  0  0  0  0  0  0  0  0
   -6.3319   -1.3413   -1.2506 H   0  0  0  0  0  0  0  0  0  0  0  0
   -5.3701   -1.8051   -2.6920 H   0  0  0  0  0  0  0  0  0  0  0  0
   -8.6197   -1.2553   -1.8655 H   0  0  0  0  0  0  0  0  0  0  0  0
   -5.6690    0.3148   -4.5972 H   0  0  0  0  0  0  0  0  0  0  0  0
  -10.4094   -0.5229   -3.3958 H   0  0  0  0  0  0  0  0  0  0  0  0
   -7.4783    1.0368   -6.1175 H   0  0  0  0  0  0  0  0  0  0  0  0
   -9.8490    0.6225   -5.5202 H   0  0  0  0  0  0  0  0  0  0  0  0
  1  2  2  0
  2  3  1  0
  2  4  1  0
  3  5  1  0
  5  6  1  0
  6  7  1  0
  7  8  1  0
  8  9  1  0
  8 10  1  0
  9 11  1  0
 10 12  2  0
 10 13  1  0
 11 14  1  0
 14 15  2  0
 16 14  1  0
 15 17  1  0
 18 16  2  0
 16 19  1  0
 17 20  1  0
 17 18  1  0
 19 21  2  0
 22 19  1  0
 20 23  2  0
 24 20  1  0
 21 25  1  0
 26 22  2  0
 23 27  1  0
 28 24  2  0
 25 29  2  0
 29 26  1  0
 27 30  2  0
 30 28  1  0
 29 31  1  0
 30 32  1  0
 31 33  1  0
 33 34  1  0
 34 35  2  0
 36 34  1  0
 35 37  1  0
 38 36  2  0
 37 39  2  0
 39 38  1  0
  1 40  1  0
  1 41  1  0
  3 42  1  0
  4 43  1  0
  4 44  1  0
  5 45  1  0
  5 46  1  0
  6 47  1  0
  6 48  1  0
  7 49  1  0
  7 50  1  0
  8 51  1  1
  9 52  1  0
  9 53  1  0
 11 54  1  0
 11 55  1  0
 15 56  1  0
 21 57  1  0
 22 58  1  0
 23 59  1  0
 24 60  1  0
 25 61  1  0
 26 62  1  0
 27 63  1  0
 28 64  1  0
 33 65  1  0
 33 66  1  0
 35 67  1  0
 36 68  1  0
 37 69  1  0
 38 70  1  0
 39 71  1  0
M  CHG  3   1   1   9   1  13  -1
M  END
>  <SMILES_raw>  (49) 
N=C(N)NCCC[C@@H](C(O)=O)NCC1=CN(C2=CC=C(Cl)C=C2)N=C1C3=CC=C(OCC4=CC=CC=C4)C=C3

>  <Protonation_Method>  (49) 
MolScrub

>  <Target_pH>  (49) 
7.4

$$$$
N-((3-(4-(benzyloxy)phenyl)-1-(4-chlorophenyl)-1H-pyrazol-4-yl)methyl)-L-isoleucin
     RDKit          3D

 66 69  0  0  0  0  0  0  0  0999 V2000
   -2.6860   -2.3269   -1.1155 C   0  0  2  0  0  0  0  0  0  0  0  0
   -1.7583   -1.1367   -0.7657 N   0  0  0  0  0  0  0  0  0  0  0  0
   -1.8584    0.0383   -1.6874 C   0  0  0  0  0  0  0  0  0  0  0  0
   -2.6938   -2.6226   -2.6537 C   0  0  0  0  0  0  0  0  0  0  0  0
   -3.9840   -2.2347   -0.2732 C   0  0  2  0  0  0  0  0  0  0  0  0
   -3.7962   -2.8752   -3.1856 O   0  0  0  0  0  0  0  0  0  0  0  0
   -1.5417   -2.4474   -3.1585 O   0  0  0  0  0  0  0  0  0  0  0  0
   -4.7572   -3.5746   -0.3168 C   0  0  0  0  0  0  0  0  0  0  0  0
   -4.8900   -1.0610   -0.6551 C   0  0  0  0  0  0  0  0  0  0  0  0
   -5.8017   -3.7106    0.7851 C   0  0  0  0  0  0  0  0  0  0  0  0
   -1.5581    1.3080   -0.9728 C   0  0  0  0  0  0  0  0  0  0  0  0
   -2.4201    2.3661   -0.7572 C   0  0  0  0  0  0  0  0  0  0  0  0
   -0.3494    1.7057   -0.3355 C   0  0  0  0  0  0  0  0  0  0  0  0
   -1.7393    3.3170   -0.0324 N   0  0  0  0  0  0  0  0  0  0  0  0
   -0.4932    2.8890    0.2702 N   0  0  0  0  0  0  0  0  0  0  0  0
    0.9081    0.9707   -0.2258 C   0  0  0  0  0  0  0  0  0  0  0  0
   -2.2031    4.5878    0.4117 C   0  0  0  0  0  0  0  0  0  0  0  0
    1.5136    0.8143    1.0283 C   0  0  0  0  0  0  0  0  0  0  0  0
    1.5259    0.4153   -1.3501 C   0  0  0  0  0  0  0  0  0  0  0  0
   -1.3451    5.4090    1.1622 C   0  0  0  0  0  0  0  0  0  0  0  0
   -3.4970    5.0372    0.1121 C   0  0  0  0  0  0  0  0  0  0  0  0
    2.7125    0.1041    1.1615 C   0  0  0  0  0  0  0  0  0  0  0  0
    2.7238   -0.2933   -1.2127 C   0  0  0  0  0  0  0  0  0  0  0  0
   -1.7776    6.6601    1.6111 C   0  0  0  0  0  0  0  0  0  0  0  0
   -3.9245    6.2911    0.5635 C   0  0  0  0  0  0  0  0  0  0  0  0
    3.3262   -0.4480    0.0381 C   0  0  0  0  0  0  0  0  0  0  0  0
   -3.0656    7.0954    1.3110 C   0  0  0  0  0  0  0  0  0  0  0  0
    4.5007   -1.1459    0.0235 O   0  0  0  0  0  0  0  0  0  0  0  0
   -3.5993    8.6344    1.8626 Cl  0  0  0  0  0  0  0  0  0  0  0  0
    5.2285   -1.2209    1.2465 C   0  0  0  0  0  0  0  0  0  0  0  0
    6.5610   -1.8708    0.9679 C   0  0  0  0  0  0  0  0  0  0  0  0
    7.5923   -1.1325    0.3673 C   0  0  0  0  0  0  0  0  0  0  0  0
    6.7843   -3.2185    1.2810 C   0  0  0  0  0  0  0  0  0  0  0  0
    8.8284   -1.7254    0.1039 C   0  0  0  0  0  0  0  0  0  0  0  0
    8.0219   -3.8094    1.0166 C   0  0  0  0  0  0  0  0  0  0  0  0
    9.0436   -3.0627    0.4315 C   0  0  0  0  0  0  0  0  0  0  0  0
   -2.1267   -3.1779   -0.6995 H   0  0  0  0  0  0  0  0  0  0  0  0
   -1.8105   -0.8816    0.2211 H   0  0  0  0  0  0  0  0  0  0  0  0
   -0.8194   -1.5148   -0.9619 H   0  0  0  0  0  0  0  0  0  0  0  0
   -1.1530   -0.1094   -2.5102 H   0  0  0  0  0  0  0  0  0  0  0  0
   -2.8677    0.0687   -2.1073 H   0  0  0  0  0  0  0  0  0  0  0  0
   -3.6797   -2.0773    0.7717 H   0  0  0  0  0  0  0  0  0  0  0  0
   -5.2573   -3.7019   -1.2834 H   0  0  0  0  0  0  0  0  0  0  0  0
   -4.0502   -4.4074   -0.2106 H   0  0  0  0  0  0  0  0  0  0  0  0
   -5.8065   -1.0508   -0.0589 H   0  0  0  0  0  0  0  0  0  0  0  0
   -4.3988   -0.1039   -0.4678 H   0  0  0  0  0  0  0  0  0  0  0  0
   -5.1812   -1.1015   -1.7085 H   0  0  0  0  0  0  0  0  0  0  0  0
   -6.2407   -4.7132    0.7616 H   0  0  0  0  0  0  0  0  0  0  0  0
   -5.3540   -3.5629    1.7726 H   0  0  0  0  0  0  0  0  0  0  0  0
   -6.6178   -2.9932    0.6616 H   0  0  0  0  0  0  0  0  0  0  0  0
   -3.4458    2.5069   -1.0642 H   0  0  0  0  0  0  0  0  0  0  0  0
    1.0595    1.2574    1.9135 H   0  0  0  0  0  0  0  0  0  0  0  0
    1.1143    0.5466   -2.3482 H   0  0  0  0  0  0  0  0  0  0  0  0
   -0.3322    5.0909    1.4047 H   0  0  0  0  0  0  0  0  0  0  0  0
   -4.1957    4.4483   -0.4745 H   0  0  0  0  0  0  0  0  0  0  0  0
    3.1400    0.0117    2.1543 H   0  0  0  0  0  0  0  0  0  0  0  0
    3.2032   -0.7139   -2.0953 H   0  0  0  0  0  0  0  0  0  0  0  0
   -1.1024    7.2870    2.1869 H   0  0  0  0  0  0  0  0  0  0  0  0
   -4.9288    6.6349    0.3298 H   0  0  0  0  0  0  0  0  0  0  0  0
    4.6698   -1.8127    1.9813 H   0  0  0  0  0  0  0  0  0  0  0  0
    5.4090   -0.2198    1.6597 H   0  0  0  0  0  0  0  0  0  0  0  0
    7.4322   -0.0907    0.0962 H   0  0  0  0  0  0  0  0  0  0  0  0
    5.9955   -3.8191    1.7288 H   0  0  0  0  0  0  0  0  0  0  0  0
    9.6211   -1.1454   -0.3618 H   0  0  0  0  0  0  0  0  0  0  0  0
    8.1879   -4.8553    1.2628 H   0  0  0  0  0  0  0  0  0  0  0  0
   10.0050   -3.5257    0.2244 H   0  0  0  0  0  0  0  0  0  0  0  0
  1  2  1  0
  2  3  1  0
  1  4  1  0
  5  1  1  0
  4  6  2  0
  4  7  1  0
  8  5  1  0
  5  9  1  0
 10  8  1  0
  3 11  1  0
 11 12  2  0
 13 11  1  0
 12 14  1  0
 15 13  2  0
 13 16  1  0
 14 17  1  0
 14 15  1  0
 16 18  2  0
 19 16  1  0
 17 20  2  0
 21 17  1  0
 18 22  1  0
 23 19  2  0
 20 24  1  0
 25 21  2  0
 22 26  2  0
 26 23  1  0
 24 27  2  0
 27 25  1  0
 26 28  1  0
 27 29  1  0
 28 30  1  0
 30 31  1  0
 31 32  2  0
 33 31  1  0
 32 34  1  0
 35 33  2  0
 34 36  2  0
 36 35  1  0
  1 37  1  1
  2 38  1  0
  2 39  1  0
  3 40  1  0
  3 41  1  0
  5 42  1  1
  8 43  1  0
  8 44  1  0
  9 45  1  0
  9 46  1  0
  9 47  1  0
 10 48  1  0
 10 49  1  0
 10 50  1  0
 12 51  1  0
 18 52  1  0
 19 53  1  0
 20 54  1  0
 21 55  1  0
 22 56  1  0
 23 57  1  0
 24 58  1  0
 25 59  1  0
 30 60  1  0
 30 61  1  0
 32 62  1  0
 33 63  1  0
 34 64  1  0
 35 65  1  0
 36 66  1  0
M  CHG  2   2   1   7  -1
M  END
>  <SMILES_raw>  (50) 
CC[C@H](C)[C@@H](C(O)=O)NCC1=CN(C2=CC=C(Cl)C=C2)N=C1C3=CC=C(OCC4=CC=CC=C4)C=C3

>  <Protonation_Method>  (50) 
MolScrub

>  <Target_pH>  (50) 
7.4

$$$$
N-((3-(4-(benzyloxy)phenyl)-1-(4-chlorophenyl)-1H-pyrazol-4-yl)methyl)-L-leucin
     RDKit          3D

 66 69  0  0  0  0  0  0  0  0999 V2000
   -3.6514   -1.8611   -0.1430 C   0  0  2  0  0  0  0  0  0  0  0  0
   -2.6600   -0.7812    0.3449 N   0  0  0  0  0  0  0  0  0  0  0  0
   -1.7840   -0.2333   -0.7210 C   0  0  0  0  0  0  0  0  0  0  0  0
   -4.8092   -1.1091   -0.8763 C   0  0  0  0  0  0  0  0  0  0  0  0
   -4.1320   -2.5929    1.1163 C   0  0  0  0  0  0  0  0  0  0  0  0
   -4.9787    0.0421   -0.3556 O   0  0  0  0  0  0  0  0  0  0  0  0
   -5.2581   -1.6323   -1.9189 O   0  0  0  0  0  0  0  0  0  0  0  0
   -5.0380   -3.8299    0.9309 C   0  0  0  0  0  0  0  0  0  0  0  0
   -6.5068   -3.4703    0.6996 C   0  0  0  0  0  0  0  0  0  0  0  0
   -4.5348   -4.7887   -0.1450 C   0  0  0  0  0  0  0  0  0  0  0  0
   -1.4131    1.1720   -0.4266 C   0  0  0  0  0  0  0  0  0  0  0  0
   -2.2714    2.2534   -0.3770 C   0  0  0  0  0  0  0  0  0  0  0  0
   -0.1336    1.7310   -0.1754 C   0  0  0  0  0  0  0  0  0  0  0  0
   -1.5201    3.3705   -0.1001 N   0  0  0  0  0  0  0  0  0  0  0  0
   -0.2084    3.0503    0.0324 N   0  0  0  0  0  0  0  0  0  0  0  0
    1.1523    1.0504   -0.1460 C   0  0  0  0  0  0  0  0  0  0  0  0
   -1.9692    4.7124    0.0509 C   0  0  0  0  0  0  0  0  0  0  0  0
    1.4299    0.0926    0.8321 C   0  0  0  0  0  0  0  0  0  0  0  0
    2.1197    1.3468   -1.1128 C   0  0  0  0  0  0  0  0  0  0  0  0
   -3.3072    5.0600   -0.1792 C   0  0  0  0  0  0  0  0  0  0  0  0
   -1.0541    5.7073    0.4306 C   0  0  0  0  0  0  0  0  0  0  0  0
    2.6598   -0.5695    0.8267 C   0  0  0  0  0  0  0  0  0  0  0  0
    3.3497    0.6793   -1.1162 C   0  0  0  0  0  0  0  0  0  0  0  0
   -3.7233    6.3860   -0.0181 C   0  0  0  0  0  0  0  0  0  0  0  0
   -1.4776    7.0290    0.5944 C   0  0  0  0  0  0  0  0  0  0  0  0
    3.6239   -0.2811   -0.1432 C   0  0  0  0  0  0  0  0  0  0  0  0
   -2.8110    7.3617    0.3745 C   0  0  0  0  0  0  0  0  0  0  0  0
    4.7766   -1.0035   -0.0264 O   0  0  0  0  0  0  0  0  0  0  0  0
   -3.3318    8.9882    0.5751 Cl  0  0  0  0  0  0  0  0  0  0  0  0
    5.8608   -0.6479   -0.8822 C   0  0  0  0  0  0  0  0  0  0  0  0
    7.0653   -1.4521   -0.4579 C   0  0  0  0  0  0  0  0  0  0  0  0
    7.8289   -1.0494    0.6482 C   0  0  0  0  0  0  0  0  0  0  0  0
    7.4172   -2.6295   -1.1327 C   0  0  0  0  0  0  0  0  0  0  0  0
    8.9315   -1.8005    1.0601 C   0  0  0  0  0  0  0  0  0  0  0  0
    8.5208   -3.3790   -0.7187 C   0  0  0  0  0  0  0  0  0  0  0  0
    9.2782   -2.9631    0.3751 C   0  0  0  0  0  0  0  0  0  0  0  0
   -3.0862   -2.5184   -0.8105 H   0  0  0  0  0  0  0  0  0  0  0  0
   -3.3497   -0.0203    0.5491 H   0  0  0  0  0  0  0  0  0  0  0  0
   -2.1730   -1.0030    1.2119 H   0  0  0  0  0  0  0  0  0  0  0  0
   -0.9186   -0.8978   -0.7837 H   0  0  0  0  0  0  0  0  0  0  0  0
   -2.3200   -0.2796   -1.6748 H   0  0  0  0  0  0  0  0  0  0  0  0
   -3.2427   -2.9332    1.6652 H   0  0  0  0  0  0  0  0  0  0  0  0
   -4.6373   -1.8853    1.7867 H   0  0  0  0  0  0  0  0  0  0  0  0
   -5.0076   -4.3724    1.8869 H   0  0  0  0  0  0  0  0  0  0  0  0
   -7.1311   -4.3679    0.7605 H   0  0  0  0  0  0  0  0  0  0  0  0
   -6.8622   -2.7674    1.4603 H   0  0  0  0  0  0  0  0  0  0  0  0
   -6.6777   -3.0260   -0.2833 H   0  0  0  0  0  0  0  0  0  0  0  0
   -5.1147   -5.7176   -0.1342 H   0  0  0  0  0  0  0  0  0  0  0  0
   -3.4854   -5.0496    0.0277 H   0  0  0  0  0  0  0  0  0  0  0  0
   -4.6236   -4.3600   -1.1480 H   0  0  0  0  0  0  0  0  0  0  0  0
   -3.3429    2.2987   -0.5222 H   0  0  0  0  0  0  0  0  0  0  0  0
    0.7137   -0.1289    1.6170 H   0  0  0  0  0  0  0  0  0  0  0  0
    1.9214    2.1040   -1.8695 H   0  0  0  0  0  0  0  0  0  0  0  0
   -4.0498    4.3340   -0.4942 H   0  0  0  0  0  0  0  0  0  0  0  0
   -0.0058    5.4694    0.6020 H   0  0  0  0  0  0  0  0  0  0  0  0
    2.8787   -1.3094    1.5932 H   0  0  0  0  0  0  0  0  0  0  0  0
    4.0651    0.9372   -1.8903 H   0  0  0  0  0  0  0  0  0  0  0  0
   -4.7615    6.6489   -0.2037 H   0  0  0  0  0  0  0  0  0  0  0  0
   -0.7632    7.7894    0.8972 H   0  0  0  0  0  0  0  0  0  0  0  0
    6.0992    0.4204   -0.7956 H   0  0  0  0  0  0  0  0  0  0  0  0
    5.6092   -0.8724   -1.9261 H   0  0  0  0  0  0  0  0  0  0  0  0
    7.5610   -0.1512    1.2008 H   0  0  0  0  0  0  0  0  0  0  0  0
    6.8298   -2.9757   -1.9805 H   0  0  0  0  0  0  0  0  0  0  0  0
    9.5154   -1.4819    1.9199 H   0  0  0  0  0  0  0  0  0  0  0  0
    8.7852   -4.2918   -1.2460 H   0  0  0  0  0  0  0  0  0  0  0  0
   10.1334   -3.5507    0.7012 H   0  0  0  0  0  0  0  0  0  0  0  0
  1  2  1  0
  2  3  1  0
  1  4  1  0
  5  1  1  0
  4  6  2  0
  4  7  1  0
  8  5  1  0
  9  8  1  0
  8 10  1  0
  3 11  1  0
 11 12  2  0
 13 11  1  0
 12 14  1  0
 15 13  2  0
 13 16  1  0
 14 17  1  0
 14 15  1  0
 16 18  2  0
 19 16  1  0
 17 20  2  0
 21 17  1  0
 18 22  1  0
 23 19  2  0
 20 24  1  0
 25 21  2  0
 22 26  2  0
 26 23  1  0
 24 27  2  0
 27 25  1  0
 26 28  1  0
 27 29  1  0
 28 30  1  0
 30 31  1  0
 31 32  2  0
 33 31  1  0
 32 34  1  0
 35 33  2  0
 34 36  2  0
 36 35  1  0
  1 37  1  6
  2 38  1  0
  2 39  1  0
  3 40  1  0
  3 41  1  0
  5 42  1  0
  5 43  1  0
  8 44  1  0
  9 45  1  0
  9 46  1  0
  9 47  1  0
 10 48  1  0
 10 49  1  0
 10 50  1  0
 12 51  1  0
 18 52  1  0
 19 53  1  0
 20 54  1  0
 21 55  1  0
 22 56  1  0
 23 57  1  0
 24 58  1  0
 25 59  1  0
 30 60  1  0
 30 61  1  0
 32 62  1  0
 33 63  1  0
 34 64  1  0
 35 65  1  0
 36 66  1  0
M  CHG  2   2   1   7  -1
M  END
>  <SMILES_raw>  (51) 
CC(C)C[C@@H](C(O)=O)NCC1=CN(C2=CC=C(Cl)C=C2)N=C1C3=CC=C(OCC4=CC=CC=C4)C=C3

>  <Protonation_Method>  (51) 
MolScrub

>  <Target_pH>  (51) 
7.4

$$$$
N-((3-(4-(benzyloxy)phenyl)-1-(4-chlorophenyl)-1H-pyrazol-4-yl)methyl)-L-methionin
     RDKit          3D

 64 67  0  0  0  0  0  0  0  0999 V2000
   -2.1682   -1.9499   -0.6703 C   0  0  2  0  0  0  0  0  0  0  0  0
   -1.1173   -1.2432   -1.5303 N   0  0  0  0  0  0  0  0  0  0  0  0
   -1.3425    0.0752   -2.1120 C   0  0  0  0  0  0  0  0  0  0  0  0
   -1.6042   -3.3715   -0.3235 C   0  0  0  0  0  0  0  0  0  0  0  0
   -3.4530   -2.2081   -1.4750 C   0  0  0  0  0  0  0  0  0  0  0  0
   -2.1170   -3.9749    0.6428 O   0  0  0  0  0  0  0  0  0  0  0  0
   -0.6494   -3.6589   -1.1184 O   0  0  0  0  0  0  0  0  0  0  0  0
   -4.6344   -1.3053   -1.1089 C   0  0  0  0  0  0  0  0  0  0  0  0
   -5.1255   -1.3115    0.6485 S   0  0  0  0  0  0  0  0  0  0  0  0
   -5.6128   -3.0545    0.8204 C   0  0  0  0  0  0  0  0  0  0  0  0
   -1.5175    1.1831   -1.1450 C   0  0  0  0  0  0  0  0  0  0  0  0
   -2.6157    2.0068   -0.9936 C   0  0  0  0  0  0  0  0  0  0  0  0
   -0.5903    1.6731   -0.1861 C   0  0  0  0  0  0  0  0  0  0  0  0
   -2.3233    2.9198   -0.0018 N   0  0  0  0  0  0  0  0  0  0  0  0
   -1.0640    2.7407    0.4595 N   0  0  0  0  0  0  0  0  0  0  0  0
    0.7185    1.1220    0.1219 C   0  0  0  0  0  0  0  0  0  0  0  0
   -3.1571    3.9549    0.5064 C   0  0  0  0  0  0  0  0  0  0  0  0
    1.8362    1.4576   -0.6471 C   0  0  0  0  0  0  0  0  0  0  0  0
    0.8450    0.1980    1.1631 C   0  0  0  0  0  0  0  0  0  0  0  0
   -2.6316    4.8829    1.4208 C   0  0  0  0  0  0  0  0  0  0  0  0
   -4.4995    4.0581    0.1153 C   0  0  0  0  0  0  0  0  0  0  0  0
    3.0745    0.8524   -0.3921 C   0  0  0  0  0  0  0  0  0  0  0  0
    2.0777   -0.4082    1.4060 C   0  0  0  0  0  0  0  0  0  0  0  0
   -3.4376    5.9100    1.9241 C   0  0  0  0  0  0  0  0  0  0  0  0
   -5.2985    5.0923    0.6170 C   0  0  0  0  0  0  0  0  0  0  0  0
    3.1939   -0.0956    0.6239 C   0  0  0  0  0  0  0  0  0  0  0  0
   -4.7684    6.0066    1.5246 C   0  0  0  0  0  0  0  0  0  0  0  0
    4.3269   -0.7748    0.9679 O   0  0  0  0  0  0  0  0  0  0  0  0
   -5.7640    7.2645    2.1474 Cl  0  0  0  0  0  0  0  0  0  0  0  0
    5.4746   -0.6250    0.1300 C   0  0  0  0  0  0  0  0  0  0  0  0
    6.5429   -1.5982    0.5752 C   0  0  0  0  0  0  0  0  0  0  0  0
    7.8790   -1.1897    0.6957 C   0  0  0  0  0  0  0  0  0  0  0  0
    6.2207   -2.9397    0.8345 C   0  0  0  0  0  0  0  0  0  0  0  0
    8.8643   -2.0979    1.0891 C   0  0  0  0  0  0  0  0  0  0  0  0
    7.2080   -3.8462    1.2239 C   0  0  0  0  0  0  0  0  0  0  0  0
    8.5285   -3.4240    1.3532 C   0  0  0  0  0  0  0  0  0  0  0  0
   -2.2870   -1.3575    0.2396 H   0  0  0  0  0  0  0  0  0  0  0  0
   -0.8823   -1.9851   -2.2229 H   0  0  0  0  0  0  0  0  0  0  0  0
   -0.2487   -1.2820   -0.9711 H   0  0  0  0  0  0  0  0  0  0  0  0
   -2.2083   -0.0063   -2.7756 H   0  0  0  0  0  0  0  0  0  0  0  0
   -0.4729    0.2773   -2.7482 H   0  0  0  0  0  0  0  0  0  0  0  0
   -3.2570   -2.0871   -2.5480 H   0  0  0  0  0  0  0  0  0  0  0  0
   -3.7865   -3.2501   -1.3750 H   0  0  0  0  0  0  0  0  0  0  0  0
   -4.3997   -0.2699   -1.3730 H   0  0  0  0  0  0  0  0  0  0  0  0
   -5.5144   -1.5891   -1.7048 H   0  0  0  0  0  0  0  0  0  0  0  0
   -6.3763   -3.2992    0.0799 H   0  0  0  0  0  0  0  0  0  0  0  0
   -4.7546   -3.7181    0.6883 H   0  0  0  0  0  0  0  0  0  0  0  0
   -6.0266   -3.2263    1.8200 H   0  0  0  0  0  0  0  0  0  0  0  0
   -3.5586    2.0236   -1.5166 H   0  0  0  0  0  0  0  0  0  0  0  0
    1.7539    2.1981   -1.4413 H   0  0  0  0  0  0  0  0  0  0  0  0
   -0.0089   -0.0536    1.7928 H   0  0  0  0  0  0  0  0  0  0  0  0
   -1.5918    4.8356    1.7373 H   0  0  0  0  0  0  0  0  0  0  0  0
   -4.9705    3.3471   -0.5548 H   0  0  0  0  0  0  0  0  0  0  0  0
    3.9240    1.1437   -1.0027 H   0  0  0  0  0  0  0  0  0  0  0  0
    2.1666   -1.1407    2.2030 H   0  0  0  0  0  0  0  0  0  0  0  0
   -3.0202    6.6242    2.6314 H   0  0  0  0  0  0  0  0  0  0  0  0
   -6.3434    5.1546    0.3211 H   0  0  0  0  0  0  0  0  0  0  0  0
    5.2311   -0.8419   -0.9171 H   0  0  0  0  0  0  0  0  0  0  0  0
    5.8475    0.4021    0.2192 H   0  0  0  0  0  0  0  0  0  0  0  0
    8.1630   -0.1597    0.4960 H   0  0  0  0  0  0  0  0  0  0  0  0
    5.1910   -3.2823    0.7482 H   0  0  0  0  0  0  0  0  0  0  0  0
    9.8937   -1.7703    1.1943 H   0  0  0  0  0  0  0  0  0  0  0  0
    6.9438   -4.8797    1.4314 H   0  0  0  0  0  0  0  0  0  0  0  0
    9.2937   -4.1285    1.6660 H   0  0  0  0  0  0  0  0  0  0  0  0
  1  2  1  0
  2  3  1  0
  1  4  1  0
  5  1  1  0
  4  6  2  0
  4  7  1  0
  8  5  1  0
  9  8  1  0
 10  9  1  0
  3 11  1  0
 11 12  2  0
 13 11  1  0
 12 14  1  0
 15 13  2  0
 13 16  1  0
 14 17  1  0
 14 15  1  0
 16 18  2  0
 19 16  1  0
 17 20  2  0
 21 17  1  0
 18 22  1  0
 23 19  2  0
 20 24  1  0
 25 21  2  0
 22 26  2  0
 26 23  1  0
 24 27  2  0
 27 25  1  0
 26 28  1  0
 27 29  1  0
 28 30  1  0
 30 31  1  0
 31 32  2  0
 33 31  1  0
 32 34  1  0
 35 33  2  0
 34 36  2  0
 36 35  1  0
  1 37  1  1
  2 38  1  0
  2 39  1  0
  3 40  1  0
  3 41  1  0
  5 42  1  0
  5 43  1  0
  8 44  1  0
  8 45  1  0
 10 46  1  0
 10 47  1  0
 10 48  1  0
 12 49  1  0
 18 50  1  0
 19 51  1  0
 20 52  1  0
 21 53  1  0
 22 54  1  0
 23 55  1  0
 24 56  1  0
 25 57  1  0
 30 58  1  0
 30 59  1  0
 32 60  1  0
 33 61  1  0
 34 62  1  0
 35 63  1  0
 36 64  1  0
M  CHG  2   2   1   7  -1
M  END
>  <SMILES_raw>  (52) 
CSCC[C@@H](C(O)=O)NCC1=CN(C2=CC=C(Cl)C=C2)N=C1C3=CC=C(OCC4=CC=CC=C4)C=C3

>  <Protonation_Method>  (52) 
MolScrub

>  <Target_pH>  (52) 
7.4

$$$$
N-((3-(4-(benzyloxy)phenyl)-1-(4-chlorophenyl)-1H-pyrazol-4-yl)methyl)-L-phenylalanin
     RDKit          3D

 67 71  0  0  0  0  0  0  0  0999 V2000
   -2.5824   -0.4746    2.6776 C   0  0  2  0  0  0  0  0  0  0  0  0
   -1.8749    0.3272    1.5727 N   0  0  0  0  0  0  0  0  0  0  0  0
   -2.6199    0.6573    0.3552 C   0  0  0  0  0  0  0  0  0  0  0  0
   -2.1763    0.1466    4.0501 C   0  0  0  0  0  0  0  0  0  0  0  0
   -2.2005   -1.9564    2.5962 C   0  0  0  0  0  0  0  0  0  0  0  0
   -1.6091    1.2771    3.8519 O   0  0  0  0  0  0  0  0  0  0  0  0
   -2.4289   -0.4977    5.0895 O   0  0  0  0  0  0  0  0  0  0  0  0
   -3.0543   -2.7219    1.6109 C   0  0  0  0  0  0  0  0  0  0  0  0
   -4.3622   -3.0810    1.9738 C   0  0  0  0  0  0  0  0  0  0  0  0
   -2.5707   -3.1021    0.3506 C   0  0  0  0  0  0  0  0  0  0  0  0
   -5.1715   -3.8030    1.0938 C   0  0  0  0  0  0  0  0  0  0  0  0
   -3.3861   -3.8096   -0.5377 C   0  0  0  0  0  0  0  0  0  0  0  0
   -4.6814   -4.1684   -0.1587 C   0  0  0  0  0  0  0  0  0  0  0  0
   -1.8795    1.6083   -0.5208 C   0  0  0  0  0  0  0  0  0  0  0  0
   -2.3052    2.8352   -0.9935 C   0  0  0  0  0  0  0  0  0  0  0  0
   -0.5626    1.4788   -1.0485 C   0  0  0  0  0  0  0  0  0  0  0  0
   -1.2764    3.3766   -1.7368 N   0  0  0  0  0  0  0  0  0  0  0  0
   -0.2169    2.5340   -1.7836 N   0  0  0  0  0  0  0  0  0  0  0  0
    0.3705    0.3874   -0.8190 C   0  0  0  0  0  0  0  0  0  0  0  0
   -1.2291    4.6446   -2.3821 C   0  0  0  0  0  0  0  0  0  0  0  0
    1.4557    0.5725    0.0454 C   0  0  0  0  0  0  0  0  0  0  0  0
    0.1456   -0.8669   -1.3870 C   0  0  0  0  0  0  0  0  0  0  0  0
   -0.0767    5.0070   -3.1013 C   0  0  0  0  0  0  0  0  0  0  0  0
   -2.3014    5.5462   -2.2990 C   0  0  0  0  0  0  0  0  0  0  0  0
    2.2852   -0.5042    0.3761 C   0  0  0  0  0  0  0  0  0  0  0  0
    0.9831   -1.9351   -1.0602 C   0  0  0  0  0  0  0  0  0  0  0  0
    0.0094    6.2628   -3.7124 C   0  0  0  0  0  0  0  0  0  0  0  0
   -2.2104    6.7998   -2.9173 C   0  0  0  0  0  0  0  0  0  0  0  0
    2.0374   -1.7683   -0.1591 C   0  0  0  0  0  0  0  0  0  0  0  0
   -1.0536    7.1560   -3.6114 C   0  0  0  0  0  0  0  0  0  0  0  0
    2.7549   -2.9033    0.0942 O   0  0  0  0  0  0  0  0  0  0  0  0
   -0.9408    8.7110   -4.3430 Cl  0  0  0  0  0  0  0  0  0  0  0  0
    3.6101   -2.9246    1.2437 C   0  0  0  0  0  0  0  0  0  0  0  0
    5.0116   -2.4314    0.9569 C   0  0  0  0  0  0  0  0  0  0  0  0
    5.7741   -1.8610    1.9883 C   0  0  0  0  0  0  0  0  0  0  0  0
    5.5976   -2.5838   -0.3085 C   0  0  0  0  0  0  0  0  0  0  0  0
    7.0807   -1.4286    1.7482 C   0  0  0  0  0  0  0  0  0  0  0  0
    6.9020   -2.1478   -0.5462 C   0  0  0  0  0  0  0  0  0  0  0  0
    7.6427   -1.5688    0.4813 C   0  0  0  0  0  0  0  0  0  0  0  0
   -3.6585   -0.3016    2.5603 H   0  0  0  0  0  0  0  0  0  0  0  0
   -0.9400   -0.0592    1.4083 H   0  0  0  0  0  0  0  0  0  0  0  0
   -1.6615    1.2032    2.1205 H   0  0  0  0  0  0  0  0  0  0  0  0
   -3.5726    1.0963    0.6699 H   0  0  0  0  0  0  0  0  0  0  0  0
   -2.8237   -0.2708   -0.1804 H   0  0  0  0  0  0  0  0  0  0  0  0
   -1.1381   -2.0679    2.3444 H   0  0  0  0  0  0  0  0  0  0  0  0
   -2.3059   -2.4526    3.5729 H   0  0  0  0  0  0  0  0  0  0  0  0
   -4.7543   -2.8184    2.9580 H   0  0  0  0  0  0  0  0  0  0  0  0
   -1.5529   -2.8650    0.0489 H   0  0  0  0  0  0  0  0  0  0  0  0
   -6.1745   -4.0958    1.4020 H   0  0  0  0  0  0  0  0  0  0  0  0
   -3.0077   -4.1093   -1.5130 H   0  0  0  0  0  0  0  0  0  0  0  0
   -5.3057   -4.7379   -0.8438 H   0  0  0  0  0  0  0  0  0  0  0  0
   -3.2412    3.3578   -0.8484 H   0  0  0  0  0  0  0  0  0  0  0  0
    1.6572    1.5540    0.4730 H   0  0  0  0  0  0  0  0  0  0  0  0
   -0.6716   -1.0260   -2.0859 H   0  0  0  0  0  0  0  0  0  0  0  0
    0.7706    4.3245   -3.1902 H   0  0  0  0  0  0  0  0  0  0  0  0
   -3.2152    5.3181   -1.7562 H   0  0  0  0  0  0  0  0  0  0  0  0
    3.1239   -0.3210    1.0416 H   0  0  0  0  0  0  0  0  0  0  0  0
    0.8064   -2.9123   -1.5053 H   0  0  0  0  0  0  0  0  0  0  0  0
    0.9194    6.5401   -4.2457 H   0  0  0  0  0  0  0  0  0  0  0  0
   -3.0404    7.4988   -2.8416 H   0  0  0  0  0  0  0  0  0  0  0  0
    3.6886   -3.9734    1.5569 H   0  0  0  0  0  0  0  0  0  0  0  0
    3.1501   -2.3930    2.0884 H   0  0  0  0  0  0  0  0  0  0  0  0
    5.3591   -1.7474    2.9875 H   0  0  0  0  0  0  0  0  0  0  0  0
    5.0390   -3.0479   -1.1214 H   0  0  0  0  0  0  0  0  0  0  0  0
    7.6601   -0.9837    2.5540 H   0  0  0  0  0  0  0  0  0  0  0  0
    7.3395   -2.2682   -1.5336 H   0  0  0  0  0  0  0  0  0  0  0  0
    8.6600   -1.2314    0.2982 H   0  0  0  0  0  0  0  0  0  0  0  0
  1  2  1  0
  2  3  1  0
  1  4  1  0
  1  5  1  0
  4  6  2  0
  4  7  1  0
  5  8  1  0
  8  9  2  0
 10  8  1  0
  9 11  1  0
 12 10  2  0
 11 13  2  0
 13 12  1  0
  3 14  1  0
 14 15  2  0
 16 14  1  0
 15 17  1  0
 18 16  2  0
 16 19  1  0
 17 20  1  0
 17 18  1  0
 19 21  2  0
 22 19  1  0
 20 23  2  0
 24 20  1  0
 21 25  1  0
 26 22  2  0
 23 27  1  0
 28 24  2  0
 25 29  2  0
 29 26  1  0
 27 30  2  0
 30 28  1  0
 29 31  1  0
 30 32  1  0
 31 33  1  0
 33 34  1  0
 34 35  2  0
 36 34  1  0
 35 37  1  0
 38 36  2  0
 37 39  2  0
 39 38  1  0
  1 40  1  6
  2 41  1  0
  2 42  1  0
  3 43  1  0
  3 44  1  0
  5 45  1  0
  5 46  1  0
  9 47  1  0
 10 48  1  0
 11 49  1  0
 12 50  1  0
 13 51  1  0
 15 52  1  0
 21 53  1  0
 22 54  1  0
 23 55  1  0
 24 56  1  0
 25 57  1  0
 26 58  1  0
 27 59  1  0
 28 60  1  0
 33 61  1  0
 33 62  1  0
 35 63  1  0
 36 64  1  0
 37 65  1  0
 38 66  1  0
 39 67  1  0
M  CHG  2   2   1   7  -1
M  END
>  <SMILES_raw>  (53) 
O=C(O)[C@H](CC1=CC=CC=C1)NCC2=CN(C3=CC=C(Cl)C=C3)N=C2C4=CC=C(OCC5=CC=CC=C5)C=C4

>  <Protonation_Method>  (53) 
MolScrub

>  <Target_pH>  (53) 
7.4

$$$$
N-((3-(4-(benzyloxy)phenyl)-1-(4-chlorophenyl)-1H-pyrazol-4-yl)methyl)-L-tryptophan
     RDKit          3D

 71 76  0  0  0  0  0  0  0  0999 V2000
   -2.4760   -1.7621    0.4821 C   0  0  2  0  0  0  0  0  0  0  0  0
   -1.6825   -0.4716    0.1883 N   0  0  0  0  0  0  0  0  0  0  0  0
   -1.4088    0.3360    1.3978 C   0  0  0  0  0  0  0  0  0  0  0  0
   -1.4748   -2.8447    0.9786 C   0  0  0  0  0  0  0  0  0  0  0  0
   -3.0843   -2.2840   -0.8260 C   0  0  0  0  0  0  0  0  0  0  0  0
   -1.8839   -3.6711    1.8238 O   0  0  0  0  0  0  0  0  0  0  0  0
   -0.3150   -2.6031    0.5064 O   0  0  0  0  0  0  0  0  0  0  0  0
   -4.4336   -2.8994   -0.6088 C   0  0  0  0  0  0  0  0  0  0  0  0
   -4.6674   -4.1617   -0.1014 C   0  0  0  0  0  0  0  0  0  0  0  0
   -5.7149   -2.3075   -0.8559 C   0  0  0  0  0  0  0  0  0  0  0  0
   -6.0183   -4.3559   -0.0257 N   0  0  0  0  0  0  0  0  0  0  0  0
   -6.6825   -3.2410   -0.4803 C   0  0  0  0  0  0  0  0  0  0  0  0
   -6.1469   -1.0616   -1.3601 C   0  0  0  0  0  0  0  0  0  0  0  0
   -8.0566   -2.9932   -0.5810 C   0  0  0  0  0  0  0  0  0  0  0  0
   -7.5178   -0.7971   -1.4671 C   0  0  0  0  0  0  0  0  0  0  0  0
   -8.4564   -1.7509   -1.0808 C   0  0  0  0  0  0  0  0  0  0  0  0
   -0.7111    1.5960    1.0389 C   0  0  0  0  0  0  0  0  0  0  0  0
   -1.2846    2.8250    0.7716 C   0  0  0  0  0  0  0  0  0  0  0  0
    0.6829    1.8107    0.8518 C   0  0  0  0  0  0  0  0  0  0  0  0
   -0.2679    3.6918    0.4329 N   0  0  0  0  0  0  0  0  0  0  0  0
    0.9274    3.0607    0.4418 N   0  0  0  0  0  0  0  0  0  0  0  0
    1.7676    0.8480    1.0012 C   0  0  0  0  0  0  0  0  0  0  0  0
   -0.3678    5.0658    0.0748 C   0  0  0  0  0  0  0  0  0  0  0  0
    1.9547    0.1651    2.2076 C   0  0  0  0  0  0  0  0  0  0  0  0
    2.6279    0.5863   -0.0728 C   0  0  0  0  0  0  0  0  0  0  0  0
   -1.5982    5.7397    0.1017 C   0  0  0  0  0  0  0  0  0  0  0  0
    0.7890    5.7593   -0.3204 C   0  0  0  0  0  0  0  0  0  0  0  0
    2.9584   -0.8003    2.3179 C   0  0  0  0  0  0  0  0  0  0  0  0
    3.6334   -0.3808    0.0428 C   0  0  0  0  0  0  0  0  0  0  0  0
   -1.6644    7.0886   -0.2671 C   0  0  0  0  0  0  0  0  0  0  0  0
    0.7149    7.1058   -0.6904 C   0  0  0  0  0  0  0  0  0  0  0  0
    3.7836   -1.0950    1.2316 C   0  0  0  0  0  0  0  0  0  0  0  0
   -0.5115    7.7633   -0.6646 C   0  0  0  0  0  0  0  0  0  0  0  0
    4.7208   -2.0610    1.4676 O   0  0  0  0  0  0  0  0  0  0  0  0
   -0.6089    9.4168   -1.1280 Cl  0  0  0  0  0  0  0  0  0  0  0  0
    5.2065   -2.7890    0.3345 C   0  0  0  0  0  0  0  0  0  0  0  0
    6.5034   -2.2242   -0.2035 C   0  0  0  0  0  0  0  0  0  0  0  0
    6.8024   -2.3324   -1.5700 C   0  0  0  0  0  0  0  0  0  0  0  0
    7.4494   -1.6388    0.6505 C   0  0  0  0  0  0  0  0  0  0  0  0
    8.0104   -1.8434   -2.0726 C   0  0  0  0  0  0  0  0  0  0  0  0
    8.6550   -1.1482    0.1462 C   0  0  0  0  0  0  0  0  0  0  0  0
    8.9340   -1.2485   -1.2148 C   0  0  0  0  0  0  0  0  0  0  0  0
   -3.2294   -1.5094    1.2356 H   0  0  0  0  0  0  0  0  0  0  0  0
   -0.7598   -0.8883   -0.0867 H   0  0  0  0  0  0  0  0  0  0  0  0
   -2.0418    0.0719   -0.5953 H   0  0  0  0  0  0  0  0  0  0  0  0
   -2.3776    0.5666    1.8533 H   0  0  0  0  0  0  0  0  0  0  0  0
   -0.8395   -0.2764    2.1019 H   0  0  0  0  0  0  0  0  0  0  0  0
   -3.1985   -1.4671   -1.5500 H   0  0  0  0  0  0  0  0  0  0  0  0
   -2.4331   -3.0228   -1.3123 H   0  0  0  0  0  0  0  0  0  0  0  0
   -3.9806   -4.9302    0.2355 H   0  0  0  0  0  0  0  0  0  0  0  0
   -6.4649   -5.1942    0.3210 H   0  0  0  0  0  0  0  0  0  0  0  0
   -5.4298   -0.3112   -1.6750 H   0  0  0  0  0  0  0  0  0  0  0  0
   -8.7895   -3.7359   -0.2821 H   0  0  0  0  0  0  0  0  0  0  0  0
   -7.8530    0.1587   -1.8628 H   0  0  0  0  0  0  0  0  0  0  0  0
   -9.5170   -1.5277   -1.1710 H   0  0  0  0  0  0  0  0  0  0  0  0
   -2.3178    3.1369    0.7892 H   0  0  0  0  0  0  0  0  0  0  0  0
    1.3338    0.3714    3.0750 H   0  0  0  0  0  0  0  0  0  0  0  0
    2.5208    1.1346   -1.0068 H   0  0  0  0  0  0  0  0  0  0  0  0
   -2.5165    5.2611    0.4213 H   0  0  0  0  0  0  0  0  0  0  0  0
    1.7569    5.2618   -0.3600 H   0  0  0  0  0  0  0  0  0  0  0  0
    3.0889   -1.3410    3.2528 H   0  0  0  0  0  0  0  0  0  0  0  0
    4.2891   -0.5459   -0.8052 H   0  0  0  0  0  0  0  0  0  0  0  0
   -2.6211    7.6080   -0.2522 H   0  0  0  0  0  0  0  0  0  0  0  0
    1.6140    7.6254   -1.0075 H   0  0  0  0  0  0  0  0  0  0  0  0
    4.4410   -2.8797   -0.4473 H   0  0  0  0  0  0  0  0  0  0  0  0
    5.4119   -3.8095    0.6823 H   0  0  0  0  0  0  0  0  0  0  0  0
    6.0954   -2.8010   -2.2509 H   0  0  0  0  0  0  0  0  0  0  0  0
    7.2465   -1.5602    1.7178 H   0  0  0  0  0  0  0  0  0  0  0  0
    8.2330   -1.9299   -3.1329 H   0  0  0  0  0  0  0  0  0  0  0  0
    9.3774   -0.6914    0.8182 H   0  0  0  0  0  0  0  0  0  0  0  0
    9.8737   -0.8672   -1.6048 H   0  0  0  0  0  0  0  0  0  0  0  0
  1  2  1  0
  2  3  1  0
  1  4  1  0
  1  5  1  0
  4  6  2  0
  4  7  1  0
  5  8  1  0
  8  9  2  0
 10  8  1  0
  9 11  1  0
 12 10  2  0
 10 13  1  0
 11 12  1  0
 14 12  1  0
 13 15  2  0
 16 14  2  0
 15 16  1  0
  3 17  1  0
 17 18  2  0
 19 17  1  0
 18 20  1  0
 21 19  2  0
 19 22  1  0
 20 23  1  0
 20 21  1  0
 22 24  2  0
 25 22  1  0
 23 26  2  0
 27 23  1  0
 24 28  1  0
 29 25  2  0
 26 30  1  0
 31 27  2  0
 28 32  2  0
 32 29  1  0
 30 33  2  0
 33 31  1  0
 32 34  1  0
 33 35  1  0
 34 36  1  0
 36 37  1  0
 37 38  2  0
 39 37  1  0
 38 40  1  0
 41 39  2  0
 40 42  2  0
 42 41  1  0
  1 43  1  1
  2 44  1  0
  2 45  1  0
  3 46  1  0
  3 47  1  0
  5 48  1  0
  5 49  1  0
  9 50  1  0
 11 51  1  0
 13 52  1  0
 14 53  1  0
 15 54  1  0
 16 55  1  0
 18 56  1  0
 24 57  1  0
 25 58  1  0
 26 59  1  0
 27 60  1  0
 28 61  1  0
 29 62  1  0
 30 63  1  0
 31 64  1  0
 36 65  1  0
 36 66  1  0
 38 67  1  0
 39 68  1  0
 40 69  1  0
 41 70  1  0
 42 71  1  0
M  CHG  2   2   1   7  -1
M  END
>  <SMILES_raw>  (54) 
O=C(O)[C@H](CC1=CNC2=C1C=CC=C2)NCC3=CN(C4=CC=C(Cl)C=C4)N=C3C5=CC=C(OCC6=CC=CC=C6)C=C5

>  <Protonation_Method>  (54) 
MolScrub

>  <Target_pH>  (54) 
7.4

$$$$
N-((3-(4-(benzyloxy)phenyl)-1-(4-chlorophenyl)-1H-pyrazol-4-yl)methyl)-L-tyrosin
     RDKit          3D

 68 72  0  0  0  0  0  0  0  0999 V2000
   -2.2764   -1.1765    0.9562 C   0  0  2  0  0  0  0  0  0  0  0  0
   -2.5247   -0.9161   -0.5353 N   0  0  0  0  0  0  0  0  0  0  0  0
   -1.3720   -0.3589   -1.2771 C   0  0  0  0  0  0  0  0  0  0  0  0
   -1.5242   -2.5233    1.1422 C   0  0  0  0  0  0  0  0  0  0  0  0
   -3.5942   -1.2067    1.7473 C   0  0  0  0  0  0  0  0  0  0  0  0
   -0.9534   -2.7079    2.2382 O   0  0  0  0  0  0  0  0  0  0  0  0
   -1.5643   -3.2060    0.0692 O   0  0  0  0  0  0  0  0  0  0  0  0
   -4.7886   -1.7674    1.0045 C   0  0  0  0  0  0  0  0  0  0  0  0
   -5.8187   -0.9155    0.5748 C   0  0  0  0  0  0  0  0  0  0  0  0
   -4.8721   -3.1368    0.7128 C   0  0  0  0  0  0  0  0  0  0  0  0
   -6.8933   -1.4217   -0.1568 C   0  0  0  0  0  0  0  0  0  0  0  0
   -5.9490   -3.6425   -0.0181 C   0  0  0  0  0  0  0  0  0  0  0  0
   -6.9482   -2.7784   -0.4515 C   0  0  0  0  0  0  0  0  0  0  0  0
   -8.0111   -3.2258   -1.1766 O   0  0  0  0  0  0  0  0  0  0  0  0
   -1.1203    1.0698   -0.9601 C   0  0  0  0  0  0  0  0  0  0  0  0
   -2.0230    2.1185   -0.9953 C   0  0  0  0  0  0  0  0  0  0  0  0
    0.1116    1.6787   -0.5869 C   0  0  0  0  0  0  0  0  0  0  0  0
   -1.3375    3.2651   -0.6573 N   0  0  0  0  0  0  0  0  0  0  0  0
   -0.0332    2.9993   -0.4310 N   0  0  0  0  0  0  0  0  0  0  0  0
    1.4189    1.0540   -0.4076 C   0  0  0  0  0  0  0  0  0  0  0  0
   -1.8430    4.5914   -0.5424 C   0  0  0  0  0  0  0  0  0  0  0  0
    1.5979   -0.0104    0.4836 C   0  0  0  0  0  0  0  0  0  0  0  0
    2.5187    1.5217   -1.1350 C   0  0  0  0  0  0  0  0  0  0  0  0
   -0.9702    5.6300   -0.1764 C   0  0  0  0  0  0  0  0  0  0  0  0
   -3.1940    4.8816   -0.7831 C   0  0  0  0  0  0  0  0  0  0  0  0
    2.8495   -0.6244    0.6205 C   0  0  0  0  0  0  0  0  0  0  0  0
    3.7669    0.9092   -0.9927 C   0  0  0  0  0  0  0  0  0  0  0  0
   -1.4419    6.9398   -0.0524 C   0  0  0  0  0  0  0  0  0  0  0  0
   -3.6600    6.1957   -0.6583 C   0  0  0  0  0  0  0  0  0  0  0  0
    3.9377   -0.1713   -0.1240 C   0  0  0  0  0  0  0  0  0  0  0  0
   -2.7847    7.2169   -0.2934 C   0  0  0  0  0  0  0  0  0  0  0  0
    5.2055   -0.6809   -0.0907 O   0  0  0  0  0  0  0  0  0  0  0  0
   -3.3679    8.8276   -0.1421 Cl  0  0  0  0  0  0  0  0  0  0  0  0
    5.4139   -1.8503    0.6999 C   0  0  0  0  0  0  0  0  0  0  0  0
    6.8424   -2.2975    0.5094 C   0  0  0  0  0  0  0  0  0  0  0  0
    7.8104   -2.0479    1.4920 C   0  0  0  0  0  0  0  0  0  0  0  0
    7.2257   -2.9520   -0.6702 C   0  0  0  0  0  0  0  0  0  0  0  0
    9.1310   -2.4608    1.3055 C   0  0  0  0  0  0  0  0  0  0  0  0
    8.5465   -3.3640   -0.8550 C   0  0  0  0  0  0  0  0  0  0  0  0
    9.4981   -3.1205    0.1339 C   0  0  0  0  0  0  0  0  0  0  0  0
   -1.6484   -0.3635    1.3354 H   0  0  0  0  0  0  0  0  0  0  0  0
   -2.5965   -1.9054   -0.8638 H   0  0  0  0  0  0  0  0  0  0  0  0
   -3.4162   -0.4623   -0.7318 H   0  0  0  0  0  0  0  0  0  0  0  0
   -0.5068   -0.9989   -1.0866 H   0  0  0  0  0  0  0  0  0  0  0  0
   -1.6233   -0.4571   -2.3393 H   0  0  0  0  0  0  0  0  0  0  0  0
   -3.8278   -0.1757    2.0469 H   0  0  0  0  0  0  0  0  0  0  0  0
   -3.4790   -1.7589    2.6890 H   0  0  0  0  0  0  0  0  0  0  0  0
   -5.8007    0.1464    0.8115 H   0  0  0  0  0  0  0  0  0  0  0  0
   -4.0962   -3.8268    1.0475 H   0  0  0  0  0  0  0  0  0  0  0  0
   -7.6932   -0.7649   -0.4888 H   0  0  0  0  0  0  0  0  0  0  0  0
   -5.9856   -4.7057   -0.2371 H   0  0  0  0  0  0  0  0  0  0  0  0
   -7.9595   -4.1947   -1.2351 H   0  0  0  0  0  0  0  0  0  0  0  0
   -3.0733    2.1370   -1.2398 H   0  0  0  0  0  0  0  0  0  0  0  0
    0.7812   -0.3755    1.1009 H   0  0  0  0  0  0  0  0  0  0  0  0
    2.4128    2.3639   -1.8155 H   0  0  0  0  0  0  0  0  0  0  0  0
    0.0840    5.4354    0.0184 H   0  0  0  0  0  0  0  0  0  0  0  0
   -3.9113    4.1199   -1.0703 H   0  0  0  0  0  0  0  0  0  0  0  0
    2.9336   -1.4461    1.3254 H   0  0  0  0  0  0  0  0  0  0  0  0
    4.6161    1.2779   -1.5637 H   0  0  0  0  0  0  0  0  0  0  0  0
   -0.7570    7.7338    0.2333 H   0  0  0  0  0  0  0  0  0  0  0  0
   -4.7077    6.4170   -0.8472 H   0  0  0  0  0  0  0  0  0  0  0  0
    5.2314   -1.6307    1.7595 H   0  0  0  0  0  0  0  0  0  0  0  0
    4.7453   -2.6617    0.3835 H   0  0  0  0  0  0  0  0  0  0  0  0
    7.5425   -1.5274    2.4087 H   0  0  0  0  0  0  0  0  0  0  0  0
    6.4933   -3.1375   -1.4532 H   0  0  0  0  0  0  0  0  0  0  0  0
    9.8742   -2.2641    2.0741 H   0  0  0  0  0  0  0  0  0  0  0  0
    8.8328   -3.8704   -1.7730 H   0  0  0  0  0  0  0  0  0  0  0  0
   10.5267   -3.4395   -0.0100 H   0  0  0  0  0  0  0  0  0  0  0  0
  1  2  1  0
  2  3  1  0
  1  4  1  0
  5  1  1  0
  4  6  2  0
  4  7  1  0
  8  5  1  0
  9  8  2  0
  8 10  1  0
 11  9  1  0
 10 12  2  0
 13 11  2  0
 12 13  1  0
 14 13  1  0
  3 15  1  0
 15 16  2  0
 17 15  1  0
 16 18  1  0
 19 17  2  0
 17 20  1  0
 18 21  1  0
 18 19  1  0
 20 22  2  0
 23 20  1  0
 21 24  2  0
 25 21  1  0
 22 26  1  0
 27 23  2  0
 24 28  1  0
 29 25  2  0
 26 30  2  0
 30 27  1  0
 28 31  2  0
 31 29  1  0
 30 32  1  0
 31 33  1  0
 32 34  1  0
 34 35  1  0
 35 36  2  0
 37 35  1  0
 36 38  1  0
 39 37  2  0
 38 40  2  0
 40 39  1  0
  1 41  1  1
  2 42  1  0
  2 43  1  0
  3 44  1  0
  3 45  1  0
  5 46  1  0
  5 47  1  0
  9 48  1  0
 10 49  1  0
 11 50  1  0
 12 51  1  0
 14 52  1  0
 16 53  1  0
 22 54  1  0
 23 55  1  0
 24 56  1  0
 25 57  1  0
 26 58  1  0
 27 59  1  0
 28 60  1  0
 29 61  1  0
 34 62  1  0
 34 63  1  0
 36 64  1  0
 37 65  1  0
 38 66  1  0
 39 67  1  0
 40 68  1  0
M  CHG  2   2   1   7  -1
M  END
>  <SMILES_raw>  (55) 
OC1=CC=C(C=C1)C[C@@H](C(O)=O)NCC2=CN(C3=CC=C(Cl)C=C3)N=C2C4=CC=C(OCC5=CC=CC=C5)C=C4

>  <Protonation_Method>  (55) 
MolScrub

>  <Target_pH>  (55) 
7.4

$$$$
3-(((3-(4-(benzyloxy)phenyl)-1-(4-chlorophenyl)-1H-pyrazol-4-yl)methyl)amino)benzoic acid
     RDKit          3D

 60 64  0  0  0  0  0  0  0  0999 V2000
   -5.2914   -3.6667   -0.8371 C   0  0  0  0  0  0  0  0  0  0  0  0
   -6.6263   -4.3728   -0.7197 C   0  0  0  0  0  0  0  0  0  0  0  0
   -7.0789   -4.9340   -1.7660 O   0  0  0  0  0  0  0  0  0  0  0  0
   -7.2005   -4.3468    0.4152 O   0  0  0  0  0  0  0  0  0  0  0  0
   -4.6145   -3.5988   -2.0614 C   0  0  0  0  0  0  0  0  0  0  0  0
   -4.6983   -3.0557    0.2838 C   0  0  0  0  0  0  0  0  0  0  0  0
   -3.3934   -2.9354   -2.1593 C   0  0  0  0  0  0  0  0  0  0  0  0
   -3.4702   -2.3802    0.2112 C   0  0  0  0  0  0  0  0  0  0  0  0
   -2.8312   -2.3306   -1.0304 C   0  0  0  0  0  0  0  0  0  0  0  0
   -2.9563   -1.8083    1.3612 N   0  0  0  0  0  0  0  0  0  0  0  0
   -1.7468   -1.0114    1.4332 C   0  0  0  0  0  0  0  0  0  0  0  0
   -1.8175    0.3858    0.9022 C   0  0  0  0  0  0  0  0  0  0  0  0
   -2.9618    1.1025    0.6029 C   0  0  0  0  0  0  0  0  0  0  0  0
   -0.7504    1.2640    0.5505 C   0  0  0  0  0  0  0  0  0  0  0  0
   -2.5711    2.3049    0.0765 N   0  0  0  0  0  0  0  0  0  0  0  0
   -1.2216    2.4304    0.0831 N   0  0  0  0  0  0  0  0  0  0  0  0
    0.6945    1.0314    0.6066 C   0  0  0  0  0  0  0  0  0  0  0  0
   -3.3949    3.3466   -0.4373 C   0  0  0  0  0  0  0  0  0  0  0  0
    1.5089    1.4821   -0.4430 C   0  0  0  0  0  0  0  0  0  0  0  0
    1.2938    0.3720    1.6873 C   0  0  0  0  0  0  0  0  0  0  0  0
   -4.7869    3.2009   -0.5144 C   0  0  0  0  0  0  0  0  0  0  0  0
   -2.8008    4.5381   -0.8866 C   0  0  0  0  0  0  0  0  0  0  0  0
    2.8849    1.2488   -0.4247 C   0  0  0  0  0  0  0  0  0  0  0  0
    2.6746    0.1336    1.7012 C   0  0  0  0  0  0  0  0  0  0  0  0
   -5.5707    4.2373   -1.0333 C   0  0  0  0  0  0  0  0  0  0  0  0
   -3.5895    5.5700   -1.4032 C   0  0  0  0  0  0  0  0  0  0  0  0
    3.4691    0.5555    0.6353 C   0  0  0  0  0  0  0  0  0  0  0  0
   -4.9706    5.4152   -1.4740 C   0  0  0  0  0  0  0  0  0  0  0  0
    4.8204    0.3790    0.5381 O   0  0  0  0  0  0  0  0  0  0  0  0
   -5.9417    6.6856   -2.1115 Cl  0  0  0  0  0  0  0  0  0  0  0  0
    5.3580   -0.7360    1.2431 C   0  0  0  0  0  0  0  0  0  0  0  0
    6.7509   -0.9924    0.7204 C   0  0  0  0  0  0  0  0  0  0  0  0
    7.8124   -0.1459    1.0786 C   0  0  0  0  0  0  0  0  0  0  0  0
    6.9985   -2.0596   -0.1555 C   0  0  0  0  0  0  0  0  0  0  0  0
    9.0970   -0.3720    0.5804 C   0  0  0  0  0  0  0  0  0  0  0  0
    8.2850   -2.2856   -0.6491 C   0  0  0  0  0  0  0  0  0  0  0  0
    9.3334   -1.4429   -0.2811 C   0  0  0  0  0  0  0  0  0  0  0  0
   -5.0535   -4.0707   -2.9396 H   0  0  0  0  0  0  0  0  0  0  0  0
   -5.2279   -3.1199    1.2338 H   0  0  0  0  0  0  0  0  0  0  0  0
   -2.8824   -2.8878   -3.1160 H   0  0  0  0  0  0  0  0  0  0  0  0
   -1.8819   -1.8205   -1.1486 H   0  0  0  0  0  0  0  0  0  0  0  0
   -3.5189   -1.8886    2.1985 H   0  0  0  0  0  0  0  0  0  0  0  0
   -1.4879   -0.9349    2.4965 H   0  0  0  0  0  0  0  0  0  0  0  0
   -0.9188   -1.5555    0.9659 H   0  0  0  0  0  0  0  0  0  0  0  0
   -3.9999    0.8109    0.6925 H   0  0  0  0  0  0  0  0  0  0  0  0
    1.0702    2.0149   -1.2862 H   0  0  0  0  0  0  0  0  0  0  0  0
    0.7023    0.0513    2.5407 H   0  0  0  0  0  0  0  0  0  0  0  0
   -5.2929    2.2934   -0.1961 H   0  0  0  0  0  0  0  0  0  0  0  0
   -1.7225    4.6759   -0.8381 H   0  0  0  0  0  0  0  0  0  0  0  0
    3.5000    1.5983   -1.2494 H   0  0  0  0  0  0  0  0  0  0  0  0
    3.1002   -0.3669    2.5651 H   0  0  0  0  0  0  0  0  0  0  0  0
   -6.6482    4.1114   -1.0959 H   0  0  0  0  0  0  0  0  0  0  0  0
   -3.1183    6.4851   -1.7488 H   0  0  0  0  0  0  0  0  0  0  0  0
    5.4117   -0.5197    2.3160 H   0  0  0  0  0  0  0  0  0  0  0  0
    4.7393   -1.6298    1.0957 H   0  0  0  0  0  0  0  0  0  0  0  0
    7.6361    0.7017    1.7393 H   0  0  0  0  0  0  0  0  0  0  0  0
    6.1871   -2.7172   -0.4657 H   0  0  0  0  0  0  0  0  0  0  0  0
    9.9111    0.2923    0.8600 H   0  0  0  0  0  0  0  0  0  0  0  0
    8.4660   -3.1161   -1.3265 H   0  0  0  0  0  0  0  0  0  0  0  0
   10.3328   -1.6163   -0.6712 H   0  0  0  0  0  0  0  0  0  0  0  0
  1  2  1  0
  2  3  2  0
  2  4  1  0
  1  5  2  0
  6  1  1  0
  5  7  1  0
  8  6  2  0
  7  9  2  0
  9  8  1  0
  8 10  1  0
 10 11  1  0
 11 12  1  0
 12 13  2  0
 14 12  1  0
 13 15  1  0
 16 14  2  0
 14 17  1  0
 15 18  1  0
 15 16  1  0
 17 19  2  0
 20 17  1  0
 18 21  2  0
 22 18  1  0
 19 23  1  0
 24 20  2  0
 21 25  1  0
 26 22  2  0
 23 27  2  0
 27 24  1  0
 25 28  2  0
 28 26  1  0
 27 29  1  0
 28 30  1  0
 29 31  1  0
 31 32  1  0
 32 33  2  0
 34 32  1  0
 33 35  1  0
 36 34  2  0
 35 37  2  0
 37 36  1  0
  5 38  1  0
  6 39  1  0
  7 40  1  0
  9 41  1  0
 10 42  1  0
 11 43  1  0
 11 44  1  0
 13 45  1  0
 19 46  1  0
 20 47  1  0
 21 48  1  0
 22 49  1  0
 23 50  1  0
 24 51  1  0
 25 52  1  0
 26 53  1  0
 31 54  1  0
 31 55  1  0
 33 56  1  0
 34 57  1  0
 35 58  1  0
 36 59  1  0
 37 60  1  0
M  CHG  1   4  -1
M  END
>  <SMILES_raw>  (56) 
O=C(O)C1=CC=CC(NCC2=CN(C3=CC=C(Cl)C=C3)N=C2C4=CC=C(OCC5=CC=CC=C5)C=C4)=C1

>  <Protonation_Method>  (56) 
MolScrub

>  <Target_pH>  (56) 
7.4

$$$$
4-(((3-(4-(benzyloxy)phenyl)-1-(4-chlorophenyl)-1H-pyrazol-4-yl)methyl)amino)benzoic acid
     RDKit          3D

 60 64  0  0  0  0  0  0  0  0999 V2000
   -1.4797   -5.0847   -0.1194 C   0  0  0  0  0  0  0  0  0  0  0  0
   -1.0793   -6.5454   -0.0011 C   0  0  0  0  0  0  0  0  0  0  0  0
   -1.6128   -7.2172    0.9384 O   0  0  0  0  0  0  0  0  0  0  0  0
   -0.2346   -6.9864   -0.8435 O   0  0  0  0  0  0  0  0  0  0  0  0
   -0.9593   -4.2723   -1.1345 C   0  0  0  0  0  0  0  0  0  0  0  0
   -2.3762   -4.5001    0.7883 C   0  0  0  0  0  0  0  0  0  0  0  0
   -1.3066   -2.9170   -1.2207 C   0  0  0  0  0  0  0  0  0  0  0  0
   -2.7199   -3.1429    0.6983 C   0  0  0  0  0  0  0  0  0  0  0  0
   -2.1803   -2.3234   -0.2974 C   0  0  0  0  0  0  0  0  0  0  0  0
   -2.4370   -0.9670   -0.3986 N   0  0  0  0  0  0  0  0  0  0  0  0
   -3.0669   -0.1784    0.6390 C   0  0  0  0  0  0  0  0  0  0  0  0
   -2.7881    1.2926    0.5838 C   0  0  0  0  0  0  0  0  0  0  0  0
   -3.7207    2.3104    0.6353 C   0  0  0  0  0  0  0  0  0  0  0  0
   -1.5340    1.9657    0.4548 C   0  0  0  0  0  0  0  0  0  0  0  0
   -3.0409    3.4987    0.5257 N   0  0  0  0  0  0  0  0  0  0  0  0
   -1.7092    3.2965    0.4126 N   0  0  0  0  0  0  0  0  0  0  0  0
   -0.1887    1.3949    0.3225 C   0  0  0  0  0  0  0  0  0  0  0  0
   -3.5783    4.8190    0.5115 C   0  0  0  0  0  0  0  0  0  0  0  0
    0.7326    1.9734   -0.5621 C   0  0  0  0  0  0  0  0  0  0  0  0
    0.2042    0.2620    1.0460 C   0  0  0  0  0  0  0  0  0  0  0  0
   -4.9587    5.0455    0.6243 C   0  0  0  0  0  0  0  0  0  0  0  0
   -2.7093    5.9162    0.3805 C   0  0  0  0  0  0  0  0  0  0  0  0
    1.9970    1.4043   -0.7464 C   0  0  0  0  0  0  0  0  0  0  0  0
    1.4640   -0.3181    0.8498 C   0  0  0  0  0  0  0  0  0  0  0  0
   -5.4581    6.3533    0.5988 C   0  0  0  0  0  0  0  0  0  0  0  0
   -3.2133    7.2203    0.3568 C   0  0  0  0  0  0  0  0  0  0  0  0
    2.3602    0.2439   -0.0597 C   0  0  0  0  0  0  0  0  0  0  0  0
   -4.5856    7.4329    0.4639 C   0  0  0  0  0  0  0  0  0  0  0  0
    3.6094   -0.2318   -0.3468 O   0  0  0  0  0  0  0  0  0  0  0  0
   -5.2099    9.0365    0.4286 Cl  0  0  0  0  0  0  0  0  0  0  0  0
    3.8790   -1.5830    0.0426 C   0  0  0  0  0  0  0  0  0  0  0  0
    5.2403   -1.9952   -0.4750 C   0  0  0  0  0  0  0  0  0  0  0  0
    6.3461   -1.1375   -0.3625 C   0  0  0  0  0  0  0  0  0  0  0  0
    5.4293   -3.2741   -1.0225 C   0  0  0  0  0  0  0  0  0  0  0  0
    7.6070   -1.5398   -0.8090 C   0  0  0  0  0  0  0  0  0  0  0  0
    6.6917   -3.6757   -1.4665 C   0  0  0  0  0  0  0  0  0  0  0  0
    7.7792   -2.8083   -1.3616 C   0  0  0  0  0  0  0  0  0  0  0  0
   -0.2702   -4.7045   -1.8602 H   0  0  0  0  0  0  0  0  0  0  0  0
   -2.8018   -5.1164    1.5794 H   0  0  0  0  0  0  0  0  0  0  0  0
   -0.8625   -2.3251   -2.0167 H   0  0  0  0  0  0  0  0  0  0  0  0
   -3.4193   -2.7529    1.4301 H   0  0  0  0  0  0  0  0  0  0  0  0
   -2.0303   -0.4695   -1.1794 H   0  0  0  0  0  0  0  0  0  0  0  0
   -4.1506   -0.3405    0.5807 H   0  0  0  0  0  0  0  0  0  0  0  0
   -2.7564   -0.5206    1.6339 H   0  0  0  0  0  0  0  0  0  0  0  0
   -4.7948    2.2624    0.7269 H   0  0  0  0  0  0  0  0  0  0  0  0
    0.4640    2.8637   -1.1250 H   0  0  0  0  0  0  0  0  0  0  0  0
   -0.4653   -0.2057    1.7640 H   0  0  0  0  0  0  0  0  0  0  0  0
   -5.6710    4.2328    0.7275 H   0  0  0  0  0  0  0  0  0  0  0  0
   -1.6332    5.7681    0.2938 H   0  0  0  0  0  0  0  0  0  0  0  0
    2.6949    1.8567   -1.4474 H   0  0  0  0  0  0  0  0  0  0  0  0
    1.7023   -1.2108    1.4225 H   0  0  0  0  0  0  0  0  0  0  0  0
   -6.5289    6.5209    0.6811 H   0  0  0  0  0  0  0  0  0  0  0  0
   -2.5288    8.0581    0.2563 H   0  0  0  0  0  0  0  0  0  0  0  0
    3.8969   -1.6697    1.1369 H   0  0  0  0  0  0  0  0  0  0  0  0
    3.1099   -2.2467   -0.3746 H   0  0  0  0  0  0  0  0  0  0  0  0
    6.2234   -0.1469    0.0721 H   0  0  0  0  0  0  0  0  0  0  0  0
    4.5919   -3.9669   -1.1079 H   0  0  0  0  0  0  0  0  0  0  0  0
    8.4541   -0.8634   -0.7228 H   0  0  0  0  0  0  0  0  0  0  0  0
    6.8232   -4.6682   -1.8916 H   0  0  0  0  0  0  0  0  0  0  0  0
    8.7600   -3.1228   -1.7085 H   0  0  0  0  0  0  0  0  0  0  0  0
  1  2  1  0
  2  3  2  0
  2  4  1  0
  1  5  2  0
  6  1  1  0
  5  7  1  0
  8  6  2  0
  7  9  2  0
  9  8  1  0
  9 10  1  0
 10 11  1  0
 11 12  1  0
 12 13  2  0
 14 12  1  0
 13 15  1  0
 16 14  2  0
 14 17  1  0
 15 18  1  0
 15 16  1  0
 17 19  2  0
 20 17  1  0
 18 21  2  0
 22 18  1  0
 19 23  1  0
 24 20  2  0
 21 25  1  0
 26 22  2  0
 23 27  2  0
 27 24  1  0
 25 28  2  0
 28 26  1  0
 27 29  1  0
 28 30  1  0
 29 31  1  0
 31 32  1  0
 32 33  2  0
 34 32  1  0
 33 35  1  0
 36 34  2  0
 35 37  2  0
 37 36  1  0
  5 38  1  0
  6 39  1  0
  7 40  1  0
  8 41  1  0
 10 42  1  0
 11 43  1  0
 11 44  1  0
 13 45  1  0
 19 46  1  0
 20 47  1  0
 21 48  1  0
 22 49  1  0
 23 50  1  0
 24 51  1  0
 25 52  1  0
 26 53  1  0
 31 54  1  0
 31 55  1  0
 33 56  1  0
 34 57  1  0
 35 58  1  0
 36 59  1  0
 37 60  1  0
M  CHG  1   4  -1
M  END
>  <SMILES_raw>  (57) 
O=C(O)C1=CC=C(NCC2=CN(C3=CC=C(Cl)C=C3)N=C2C4=CC=C(OCC5=CC=CC=C5)C=C4)C=C1

>  <Protonation_Method>  (57) 
MolScrub

>  <Target_pH>  (57) 
7.4

$$$$
N-((3-(4-((4-chlorobenzyl)oxy)phenyl)-1-(4-chlorophenyl)-1H-pyrazol-4-yl)methyl)-L-alanin
     RDKit          3D

 57 60  0  0  0  0  0  0  0  0999 V2000
   -2.4900    3.9434    0.2001 C   0  0  2  0  0  0  0  0  0  0  0  0
   -2.3006    2.4514   -0.0717 N   0  0  0  0  0  0  0  0  0  0  0  0
   -2.4588    1.5938    1.1216 C   0  0  0  0  0  0  0  0  0  0  0  0
   -4.0083    4.2950    0.1045 C   0  0  0  0  0  0  0  0  0  0  0  0
   -1.7560    4.7197   -0.8823 C   0  0  0  0  0  0  0  0  0  0  0  0
   -4.6482    3.3197   -0.4145 O   0  0  0  0  0  0  0  0  0  0  0  0
   -4.3706    5.3961    0.5701 O   0  0  0  0  0  0  0  0  0  0  0  0
   -2.6125    0.1727    0.7284 C   0  0  0  0  0  0  0  0  0  0  0  0
   -3.7991   -0.5020    0.5139 C   0  0  0  0  0  0  0  0  0  0  0  0
   -1.6059   -0.7822    0.4234 C   0  0  0  0  0  0  0  0  0  0  0  0
   -3.4842   -1.7807    0.1159 N   0  0  0  0  0  0  0  0  0  0  0  0
   -2.1415   -1.9451    0.0393 N   0  0  0  0  0  0  0  0  0  0  0  0
   -0.1592   -0.5998    0.4245 C   0  0  0  0  0  0  0  0  0  0  0  0
   -4.3708   -2.8455   -0.2098 C   0  0  0  0  0  0  0  0  0  0  0  0
    0.5133   -0.1798    1.5751 C   0  0  0  0  0  0  0  0  0  0  0  0
    0.5728   -0.8422   -0.7450 C   0  0  0  0  0  0  0  0  0  0  0  0
   -3.8417   -4.0954   -0.5724 C   0  0  0  0  0  0  0  0  0  0  0  0
   -5.7617   -2.6716   -0.1746 C   0  0  0  0  0  0  0  0  0  0  0  0
    1.8964    0.0179    1.5422 C   0  0  0  0  0  0  0  0  0  0  0  0
    1.9584   -0.6459   -0.7735 C   0  0  0  0  0  0  0  0  0  0  0  0
   -4.6929   -5.1564   -0.8933 C   0  0  0  0  0  0  0  0  0  0  0  0
   -6.6085   -3.7378   -0.4985 C   0  0  0  0  0  0  0  0  0  0  0  0
    2.6250   -0.2118    0.3715 C   0  0  0  0  0  0  0  0  0  0  0  0
   -6.0724   -4.9734   -0.8550 C   0  0  0  0  0  0  0  0  0  0  0  0
    3.9659    0.0222    0.4841 O   0  0  0  0  0  0  0  0  0  0  0  0
   -7.1203   -6.2791   -1.2495 Cl  0  0  0  0  0  0  0  0  0  0  0  0
    4.7821   -0.2933   -0.6420 C   0  0  0  0  0  0  0  0  0  0  0  0
    6.2186   -0.0267   -0.2593 C   0  0  0  0  0  0  0  0  0  0  0  0
    6.9604   -1.0006    0.4277 C   0  0  0  0  0  0  0  0  0  0  0  0
    6.8171    1.2102   -0.5452 C   0  0  0  0  0  0  0  0  0  0  0  0
    8.2829   -0.7502    0.8028 C   0  0  0  0  0  0  0  0  0  0  0  0
    8.1399    1.4601   -0.1693 C   0  0  0  0  0  0  0  0  0  0  0  0
    8.8675    0.4782    0.5010 C   0  0  0  0  0  0  0  0  0  0  0  0
   10.4958    0.7871    0.9651 Cl  0  0  0  0  0  0  0  0  0  0  0  0
   -2.0828    4.1584    1.1940 H   0  0  0  0  0  0  0  0  0  0  0  0
   -3.1649    2.2758   -0.6402 H   0  0  0  0  0  0  0  0  0  0  0  0
   -1.4894    2.2246   -0.6480 H   0  0  0  0  0  0  0  0  0  0  0  0
   -1.5811    1.7561    1.7534 H   0  0  0  0  0  0  0  0  0  0  0  0
   -3.3435    1.9359    1.6723 H   0  0  0  0  0  0  0  0  0  0  0  0
   -2.1676    4.5118   -1.8777 H   0  0  0  0  0  0  0  0  0  0  0  0
   -1.8380    5.8004   -0.7127 H   0  0  0  0  0  0  0  0  0  0  0  0
   -0.6896    4.4670   -0.8939 H   0  0  0  0  0  0  0  0  0  0  0  0
   -4.8216   -0.1623    0.6041 H   0  0  0  0  0  0  0  0  0  0  0  0
   -0.0175   -0.0286    2.5119 H   0  0  0  0  0  0  0  0  0  0  0  0
    0.0662   -1.1968   -1.6418 H   0  0  0  0  0  0  0  0  0  0  0  0
   -2.7660   -4.2612   -0.6063 H   0  0  0  0  0  0  0  0  0  0  0  0
   -6.2237   -1.7260    0.0941 H   0  0  0  0  0  0  0  0  0  0  0  0
    2.4177    0.3386    2.4424 H   0  0  0  0  0  0  0  0  0  0  0  0
    2.4806   -0.8484   -1.7031 H   0  0  0  0  0  0  0  0  0  0  0  0
   -4.2718   -6.1192   -1.1707 H   0  0  0  0  0  0  0  0  0  0  0  0
   -7.6863   -3.5961   -0.4715 H   0  0  0  0  0  0  0  0  0  0  0  0
    4.5090    0.3314   -1.5026 H   0  0  0  0  0  0  0  0  0  0  0  0
    4.6743   -1.3499   -0.9201 H   0  0  0  0  0  0  0  0  0  0  0  0
    6.5077   -1.9578    0.6808 H   0  0  0  0  0  0  0  0  0  0  0  0
    6.2547    1.9892   -1.0568 H   0  0  0  0  0  0  0  0  0  0  0  0
    8.8472   -1.5128    1.3339 H   0  0  0  0  0  0  0  0  0  0  0  0
    8.5933    2.4218   -0.3967 H   0  0  0  0  0  0  0  0  0  0  0  0
  1  2  1  0
  2  3  1  0
  1  4  1  0
  5  1  1  0
  4  6  2  0
  4  7  1  0
  3  8  1  0
  8  9  2  0
 10  8  1  0
  9 11  1  0
 12 10  2  0
 10 13  1  0
 11 14  1  0
 11 12  1  0
 13 15  2  0
 16 13  1  0
 14 17  2  0
 18 14  1  0
 15 19  1  0
 20 16  2  0
 17 21  1  0
 22 18  2  0
 19 23  2  0
 23 20  1  0
 21 24  2  0
 24 22  1  0
 23 25  1  0
 24 26  1  0
 25 27  1  0
 27 28  1  0
 28 29  2  0
 30 28  1  0
 29 31  1  0
 32 30  2  0
 31 33  2  0
 33 32  1  0
 33 34  1  0
  1 35  1  1
  2 36  1  0
  2 37  1  0
  3 38  1  0
  3 39  1  0
  5 40  1  0
  5 41  1  0
  5 42  1  0
  9 43  1  0
 15 44  1  0
 16 45  1  0
 17 46  1  0
 18 47  1  0
 19 48  1  0
 20 49  1  0
 21 50  1  0
 22 51  1  0
 27 52  1  0
 27 53  1  0
 29 54  1  0
 30 55  1  0
 31 56  1  0
 32 57  1  0
M  CHG  2   2   1   7  -1
M  END
>  <SMILES_raw>  (58) 
C[C@@H](C(O)=O)NCC1=CN(C2=CC=C(Cl)C=C2)N=C1C3=CC=C(OCC4=CC=C(Cl)C=C4)C=C3

>  <Protonation_Method>  (58) 
MolScrub

>  <Target_pH>  (58) 
7.4

$$$$
N-((3-(4-((4-chlorobenzyl)oxy)phenyl)-1-(4-chlorophenyl)-1H-pyrazol-4-yl)methyl)-L-glycin
     RDKit          3D

 54 57  0  0  0  0  0  0  0  0999 V2000
   -3.7968   -3.7072    0.5566 C   0  0  0  0  0  0  0  0  0  0  0  0
   -2.6294   -2.9974    1.2344 N   0  0  0  0  0  0  0  0  0  0  0  0
   -1.6954   -2.3030    0.3220 C   0  0  0  0  0  0  0  0  0  0  0  0
   -3.3677   -5.1384    0.1491 C   0  0  0  0  0  0  0  0  0  0  0  0
   -2.2426   -5.4143    0.6819 O   0  0  0  0  0  0  0  0  0  0  0  0
   -4.1242   -5.7628   -0.6217 O   0  0  0  0  0  0  0  0  0  0  0  0
   -2.0656   -0.8906    0.0356 C   0  0  0  0  0  0  0  0  0  0  0  0
   -3.2935   -0.2633    0.1498 C   0  0  0  0  0  0  0  0  0  0  0  0
   -1.1915    0.1397   -0.4188 C   0  0  0  0  0  0  0  0  0  0  0  0
   -3.1219    1.0570   -0.2072 N   0  0  0  0  0  0  0  0  0  0  0  0
   -1.8309    1.3100   -0.5144 N   0  0  0  0  0  0  0  0  0  0  0  0
    0.2335    0.0489   -0.7259 C   0  0  0  0  0  0  0  0  0  0  0  0
   -4.0993    2.0915   -0.2561 C   0  0  0  0  0  0  0  0  0  0  0  0
    0.7263   -0.9464   -1.5755 C   0  0  0  0  0  0  0  0  0  0  0  0
    1.1294    0.9665   -0.1638 C   0  0  0  0  0  0  0  0  0  0  0  0
   -5.4428    1.8434    0.0615 C   0  0  0  0  0  0  0  0  0  0  0  0
   -3.7095    3.3880   -0.6331 C   0  0  0  0  0  0  0  0  0  0  0  0
    2.0974   -1.0296   -1.8357 C   0  0  0  0  0  0  0  0  0  0  0  0
    2.5017    0.8805   -0.4281 C   0  0  0  0  0  0  0  0  0  0  0  0
   -6.3788    2.8831    0.0056 C   0  0  0  0  0  0  0  0  0  0  0  0
   -4.6488    4.4220   -0.6867 C   0  0  0  0  0  0  0  0  0  0  0  0
    2.9916   -0.1182   -1.2676 C   0  0  0  0  0  0  0  0  0  0  0  0
   -5.9791    4.1654   -0.3668 C   0  0  0  0  0  0  0  0  0  0  0  0
    4.3004   -0.3275   -1.5997 O   0  0  0  0  0  0  0  0  0  0  0  0
   -7.1359    5.4363   -0.4304 Cl  0  0  0  0  0  0  0  0  0  0  0  0
    5.2650    0.6677   -1.2455 C   0  0  0  0  0  0  0  0  0  0  0  0
    5.7880    0.5160    0.1671 C   0  0  0  0  0  0  0  0  0  0  0  0
    5.9241   -0.7489    0.7598 C   0  0  0  0  0  0  0  0  0  0  0  0
    6.1984    1.6492    0.8867 C   0  0  0  0  0  0  0  0  0  0  0  0
    6.4308   -0.8762    2.0553 C   0  0  0  0  0  0  0  0  0  0  0  0
    6.7055    1.5219    2.1824 C   0  0  0  0  0  0  0  0  0  0  0  0
    6.8162    0.2600    2.7621 C   0  0  0  0  0  0  0  0  0  0  0  0
    7.4367    0.1047    4.3594 Cl  0  0  0  0  0  0  0  0  0  0  0  0
   -4.5918   -3.7640    1.3052 H   0  0  0  0  0  0  0  0  0  0  0  0
   -4.1220   -3.1091   -0.2980 H   0  0  0  0  0  0  0  0  0  0  0  0
   -2.8844   -2.4711    2.0690 H   0  0  0  0  0  0  0  0  0  0  0  0
   -2.0993   -3.8484    1.5445 H   0  0  0  0  0  0  0  0  0  0  0  0
   -0.7231   -2.3340    0.8271 H   0  0  0  0  0  0  0  0  0  0  0  0
   -1.6195   -2.8866   -0.6019 H   0  0  0  0  0  0  0  0  0  0  0  0
   -4.2577   -0.6449    0.4475 H   0  0  0  0  0  0  0  0  0  0  0  0
    0.0601   -1.6526   -2.0646 H   0  0  0  0  0  0  0  0  0  0  0  0
    0.7631    1.7570    0.4890 H   0  0  0  0  0  0  0  0  0  0  0  0
   -5.8014    0.8611    0.3518 H   0  0  0  0  0  0  0  0  0  0  0  0
   -2.6752    3.6107   -0.8919 H   0  0  0  0  0  0  0  0  0  0  0  0
    2.4725   -1.8076   -2.4980 H   0  0  0  0  0  0  0  0  0  0  0  0
    3.1539    1.6039    0.0482 H   0  0  0  0  0  0  0  0  0  0  0  0
   -7.4191    2.6860    0.2532 H   0  0  0  0  0  0  0  0  0  0  0  0
   -4.3341    5.4202   -0.9804 H   0  0  0  0  0  0  0  0  0  0  0  0
    4.8768    1.6757   -1.4383 H   0  0  0  0  0  0  0  0  0  0  0  0
    6.1157    0.5343   -1.9246 H   0  0  0  0  0  0  0  0  0  0  0  0
    5.6308   -1.6445    0.2144 H   0  0  0  0  0  0  0  0  0  0  0  0
    6.1255    2.6404    0.4436 H   0  0  0  0  0  0  0  0  0  0  0  0
    6.5235   -1.8624    2.5027 H   0  0  0  0  0  0  0  0  0  0  0  0
    7.0144    2.4078    2.7311 H   0  0  0  0  0  0  0  0  0  0  0  0
  1  2  1  0
  2  3  1  0
  1  4  1  0
  4  5  2  0
  4  6  1  0
  3  7  1  0
  7  8  2  0
  9  7  1  0
  8 10  1  0
 11  9  2  0
  9 12  1  0
 10 13  1  0
 10 11  1  0
 12 14  2  0
 15 12  1  0
 13 16  2  0
 17 13  1  0
 14 18  1  0
 19 15  2  0
 16 20  1  0
 21 17  2  0
 18 22  2  0
 22 19  1  0
 20 23  2  0
 23 21  1  0
 22 24  1  0
 23 25  1  0
 24 26  1  0
 26 27  1  0
 27 28  2  0
 29 27  1  0
 28 30  1  0
 31 29  2  0
 30 32  2  0
 32 31  1  0
 32 33  1  0
  1 34  1  0
  1 35  1  0
  2 36  1  0
  2 37  1  0
  3 38  1  0
  3 39  1  0
  8 40  1  0
 14 41  1  0
 15 42  1  0
 16 43  1  0
 17 44  1  0
 18 45  1  0
 19 46  1  0
 20 47  1  0
 21 48  1  0
 26 49  1  0
 26 50  1  0
 28 51  1  0
 29 52  1  0
 30 53  1  0
 31 54  1  0
M  CHG  2   2   1   6  -1
M  END
>  <SMILES_raw>  (59) 
O=C(O)CNCC1=CN(C2=CC=C(Cl)C=C2)N=C1C3=CC=C(OCC4=CC=C(Cl)C=C4)C=C3

>  <Protonation_Method>  (59) 
MolScrub

>  <Target_pH>  (59) 
7.4

$$$$
N-((3-(4-((4-chlorobenzyl)oxy)phenyl)-1-(4-chlorophenyl)-1H-pyrazol-4-yl)methyl)-L-isoleucin
     RDKit          3D

 66 69  0  0  0  0  0  0  0  0999 V2000
   -3.3031   -2.3893   -1.2771 C   0  0  2  0  0  0  0  0  0  0  0  0
   -3.0808   -0.9874   -0.6927 N   0  0  0  0  0  0  0  0  0  0  0  0
   -1.7835   -0.3750   -1.0736 C   0  0  0  0  0  0  0  0  0  0  0  0
   -3.7170   -2.2004   -2.7795 C   0  0  0  0  0  0  0  0  0  0  0  0
   -4.4439   -3.0898   -0.5004 C   0  0  2  0  0  0  0  0  0  0  0  0
   -4.2612   -1.0572   -2.9357 O   0  0  0  0  0  0  0  0  0  0  0  0
   -3.3544   -3.0853   -3.5840 O   0  0  0  0  0  0  0  0  0  0  0  0
   -4.2362   -3.1632    1.0326 C   0  0  0  0  0  0  0  0  0  0  0  0
   -4.6967   -4.5042   -1.0483 C   0  0  0  0  0  0  0  0  0  0  0  0
   -2.9213   -3.7920    1.4780 C   0  0  0  0  0  0  0  0  0  0  0  0
   -1.6782    1.0199   -0.5713 C   0  0  0  0  0  0  0  0  0  0  0  0
   -2.6677    1.9852   -0.5241 C   0  0  0  0  0  0  0  0  0  0  0  0
   -0.5310    1.6689   -0.0346 C   0  0  0  0  0  0  0  0  0  0  0  0
   -2.1261    3.1061    0.0635 N   0  0  0  0  0  0  0  0  0  0  0  0
   -0.8331    2.8963    0.4028 N   0  0  0  0  0  0  0  0  0  0  0  0
    0.8267    1.1469    0.0960 C   0  0  0  0  0  0  0  0  0  0  0  0
   -2.7670    4.3455    0.3459 C   0  0  0  0  0  0  0  0  0  0  0  0
    1.4770    0.5609   -0.9986 C   0  0  0  0  0  0  0  0  0  0  0  0
    1.5012    1.2372    1.3180 C   0  0  0  0  0  0  0  0  0  0  0  0
   -2.0528    5.3536    1.0143 C   0  0  0  0  0  0  0  0  0  0  0  0
   -4.0994    4.5784   -0.0265 C   0  0  0  0  0  0  0  0  0  0  0  0
    2.7771    0.0553   -0.8687 C   0  0  0  0  0  0  0  0  0  0  0  0
    2.7977    0.7310    1.4434 C   0  0  0  0  0  0  0  0  0  0  0  0
   -2.6661    6.5746    1.3111 C   0  0  0  0  0  0  0  0  0  0  0  0
   -4.7065    5.8040    0.2721 C   0  0  0  0  0  0  0  0  0  0  0  0
    3.4435    0.1416    0.3535 C   0  0  0  0  0  0  0  0  0  0  0  0
   -3.9892    6.7949    0.9393 C   0  0  0  0  0  0  0  0  0  0  0  0
    4.7087   -0.3044    0.6142 O   0  0  0  0  0  0  0  0  0  0  0  0
   -4.7431    8.2976    1.3036 Cl  0  0  0  0  0  0  0  0  0  0  0  0
    5.4820   -0.7545   -0.4952 C   0  0  0  0  0  0  0  0  0  0  0  0
    6.8746   -1.0622    0.0008 C   0  0  0  0  0  0  0  0  0  0  0  0
    7.8854   -0.0912   -0.0685 C   0  0  0  0  0  0  0  0  0  0  0  0
    7.1658   -2.3101    0.5728 C   0  0  0  0  0  0  0  0  0  0  0  0
    9.1692   -0.3708    0.4051 C   0  0  0  0  0  0  0  0  0  0  0  0
    8.4498   -2.5891    1.0470 C   0  0  0  0  0  0  0  0  0  0  0  0
    9.4460   -1.6192    0.9588 C   0  0  0  0  0  0  0  0  0  0  0  0
   11.0269   -1.9623    1.5446 Cl  0  0  0  0  0  0  0  0  0  0  0  0
   -2.3546   -2.9320   -1.1928 H   0  0  0  0  0  0  0  0  0  0  0  0
   -3.2896   -0.8840    0.2972 H   0  0  0  0  0  0  0  0  0  0  0  0
   -3.7963   -0.4615   -1.2454 H   0  0  0  0  0  0  0  0  0  0  0  0
   -1.6942   -0.3954   -2.1646 H   0  0  0  0  0  0  0  0  0  0  0  0
   -1.0082   -1.0125   -0.6367 H   0  0  0  0  0  0  0  0  0  0  0  0
   -5.3724   -2.5232   -0.6635 H   0  0  0  0  0  0  0  0  0  0  0  0
   -4.3158   -2.1628    1.4730 H   0  0  0  0  0  0  0  0  0  0  0  0
   -5.0611   -3.7364    1.4766 H   0  0  0  0  0  0  0  0  0  0  0  0
   -5.0729   -4.4709   -2.0764 H   0  0  0  0  0  0  0  0  0  0  0  0
   -5.4537   -5.0255   -0.4510 H   0  0  0  0  0  0  0  0  0  0  0  0
   -3.7824   -5.1075   -1.0416 H   0  0  0  0  0  0  0  0  0  0  0  0
   -2.8123   -4.8102    1.0943 H   0  0  0  0  0  0  0  0  0  0  0  0
   -2.0586   -3.2021    1.1508 H   0  0  0  0  0  0  0  0  0  0  0  0
   -2.8870   -3.8447    2.5715 H   0  0  0  0  0  0  0  0  0  0  0  0
   -3.6953    1.9580   -0.8559 H   0  0  0  0  0  0  0  0  0  0  0  0
    0.9965    0.5138   -1.9739 H   0  0  0  0  0  0  0  0  0  0  0  0
    1.0267    1.7081    2.1771 H   0  0  0  0  0  0  0  0  0  0  0  0
   -1.0169    5.2039    1.3154 H   0  0  0  0  0  0  0  0  0  0  0  0
   -4.6938    3.8398   -0.5554 H   0  0  0  0  0  0  0  0  0  0  0  0
    3.2398   -0.3898   -1.7440 H   0  0  0  0  0  0  0  0  0  0  0  0
    3.3153    0.8091    2.3969 H   0  0  0  0  0  0  0  0  0  0  0  0
   -2.1033    7.3460    1.8294 H   0  0  0  0  0  0  0  0  0  0  0  0
   -5.7380    5.9806   -0.0227 H   0  0  0  0  0  0  0  0  0  0  0  0
    5.5367    0.0184   -1.2717 H   0  0  0  0  0  0  0  0  0  0  0  0
    5.0430   -1.6616   -0.9281 H   0  0  0  0  0  0  0  0  0  0  0  0
    7.6763    0.8915   -0.4871 H   0  0  0  0  0  0  0  0  0  0  0  0
    6.3906   -3.0695    0.6578 H   0  0  0  0  0  0  0  0  0  0  0  0
    9.9441    0.3890    0.3450 H   0  0  0  0  0  0  0  0  0  0  0  0
    8.6643   -3.5591    1.4874 H   0  0  0  0  0  0  0  0  0  0  0  0
  1  2  1  0
  2  3  1  0
  1  4  1  0
  5  1  1  0
  4  6  2  0
  4  7  1  0
  8  5  1  0
  5  9  1  0
 10  8  1  0
  3 11  1  0
 11 12  2  0
 13 11  1  0
 12 14  1  0
 15 13  2  0
 13 16  1  0
 14 17  1  0
 14 15  1  0
 16 18  2  0
 19 16  1  0
 17 20  2  0
 21 17  1  0
 18 22  1  0
 23 19  2  0
 20 24  1  0
 25 21  2  0
 22 26  2  0
 26 23  1  0
 24 27  2  0
 27 25  1  0
 26 28  1  0
 27 29  1  0
 28 30  1  0
 30 31  1  0
 31 32  2  0
 33 31  1  0
 32 34  1  0
 35 33  2  0
 34 36  2  0
 36 35  1  0
 36 37  1  0
  1 38  1  6
  2 39  1  0
  2 40  1  0
  3 41  1  0
  3 42  1  0
  5 43  1  1
  8 44  1  0
  8 45  1  0
  9 46  1  0
  9 47  1  0
  9 48  1  0
 10 49  1  0
 10 50  1  0
 10 51  1  0
 12 52  1  0
 18 53  1  0
 19 54  1  0
 20 55  1  0
 21 56  1  0
 22 57  1  0
 23 58  1  0
 24 59  1  0
 25 60  1  0
 30 61  1  0
 30 62  1  0
 32 63  1  0
 33 64  1  0
 34 65  1  0
 35 66  1  0
M  CHG  2   2   1   7  -1
M  END
>  <SMILES_raw>  (60) 
CC[C@H](C)[C@@H](C(O)=O)NCC1=CN(C2=CC=C(Cl)C=C2)N=C1C3=CC=C(OCC4=CC=C(Cl)C=C4)C=C3

>  <Protonation_Method>  (60) 
MolScrub

>  <Target_pH>  (60) 
7.4

$$$$
N-((3-(4-((4-chlorobenzyl)oxy)phenyl)-1-(4-chlorophenyl)-1H-pyrazol-4-yl)methyl)-L-methionin
     RDKit          3D

 64 67  0  0  0  0  0  0  0  0999 V2000
   -2.4068   -1.1681   -1.3915 C   0  0  2  0  0  0  0  0  0  0  0  0
   -0.8912   -0.8684   -1.3875 N   0  0  0  0  0  0  0  0  0  0  0  0
   -0.4965    0.4814   -1.8430 C   0  0  0  0  0  0  0  0  0  0  0  0
   -2.9638   -0.8435    0.0279 C   0  0  0  0  0  0  0  0  0  0  0  0
   -2.5685   -2.6481   -1.7490 C   0  0  0  0  0  0  0  0  0  0  0  0
   -4.1169   -0.3592    0.0759 O   0  0  0  0  0  0  0  0  0  0  0  0
   -2.0369   -0.9855    0.8919 O   0  0  0  0  0  0  0  0  0  0  0  0
   -4.0284   -3.0986   -1.8638 C   0  0  0  0  0  0  0  0  0  0  0  0
   -4.6149   -4.0256   -0.4105 S   0  0  0  0  0  0  0  0  0  0  0  0
   -3.7652   -5.6006   -0.6779 C   0  0  0  0  0  0  0  0  0  0  0  0
   -0.8549    1.5919   -0.9309 C   0  0  0  0  0  0  0  0  0  0  0  0
   -2.0718    2.2261   -0.7806 C   0  0  0  0  0  0  0  0  0  0  0  0
   -0.0123    2.2442    0.0095 C   0  0  0  0  0  0  0  0  0  0  0  0
   -1.9305    3.1593    0.2261 N   0  0  0  0  0  0  0  0  0  0  0  0
   -0.6314    3.2689    0.6009 N   0  0  0  0  0  0  0  0  0  0  0  0
    1.3595    1.8996    0.3387 C   0  0  0  0  0  0  0  0  0  0  0  0
   -2.9372    3.9727    0.8161 C   0  0  0  0  0  0  0  0  0  0  0  0
    1.6157    0.7575    1.1058 C   0  0  0  0  0  0  0  0  0  0  0  0
    2.4223    2.6706   -0.1331 C   0  0  0  0  0  0  0  0  0  0  0  0
   -2.5654    5.0054    1.6922 C   0  0  0  0  0  0  0  0  0  0  0  0
   -4.2955    3.7454    0.5533 C   0  0  0  0  0  0  0  0  0  0  0  0
    2.9324    0.3703    1.3749 C   0  0  0  0  0  0  0  0  0  0  0  0
    3.7355    2.2772    0.1368 C   0  0  0  0  0  0  0  0  0  0  0  0
   -3.5415    5.8163    2.2783 C   0  0  0  0  0  0  0  0  0  0  0  0
   -5.2682    4.5577    1.1469 C   0  0  0  0  0  0  0  0  0  0  0  0
    3.9991    1.1213    0.8802 C   0  0  0  0  0  0  0  0  0  0  0  0
   -4.8875    5.5898    2.0026 C   0  0  0  0  0  0  0  0  0  0  0  0
    5.3284    0.8436    1.0405 O   0  0  0  0  0  0  0  0  0  0  0  0
   -6.0877    6.5877    2.7258 Cl  0  0  0  0  0  0  0  0  0  0  0  0
    5.7046   -0.3435    1.7459 C   0  0  0  0  0  0  0  0  0  0  0  0
    5.5777   -1.5929    0.8997 C   0  0  0  0  0  0  0  0  0  0  0  0
    5.9784   -1.5913   -0.4458 C   0  0  0  0  0  0  0  0  0  0  0  0
    5.0918   -2.7834    1.4620 C   0  0  0  0  0  0  0  0  0  0  0  0
    5.8672   -2.7470   -1.2220 C   0  0  0  0  0  0  0  0  0  0  0  0
    4.9802   -3.9397    0.6853 C   0  0  0  0  0  0  0  0  0  0  0  0
    5.3638   -3.9150   -0.6539 C   0  0  0  0  0  0  0  0  0  0  0  0
    5.2127   -5.3351   -1.6134 Cl  0  0  0  0  0  0  0  0  0  0  0  0
   -2.8596   -0.5317   -2.1591 H   0  0  0  0  0  0  0  0  0  0  0  0
   -0.3367   -1.6158   -1.8032 H   0  0  0  0  0  0  0  0  0  0  0  0
   -0.7190   -0.9148   -0.3520 H   0  0  0  0  0  0  0  0  0  0  0  0
    0.5886    0.4371   -1.9861 H   0  0  0  0  0  0  0  0  0  0  0  0
   -0.9367    0.6285   -2.8355 H   0  0  0  0  0  0  0  0  0  0  0  0
   -2.0021   -3.2747   -1.0498 H   0  0  0  0  0  0  0  0  0  0  0  0
   -2.1031   -2.8009   -2.7328 H   0  0  0  0  0  0  0  0  0  0  0  0
   -4.6950   -2.2451   -2.0253 H   0  0  0  0  0  0  0  0  0  0  0  0
   -4.1445   -3.7524   -2.7359 H   0  0  0  0  0  0  0  0  0  0  0  0
   -4.0485   -6.2973    0.1158 H   0  0  0  0  0  0  0  0  0  0  0  0
   -2.6807   -5.4711   -0.6477 H   0  0  0  0  0  0  0  0  0  0  0  0
   -4.0587   -6.0336   -1.6377 H   0  0  0  0  0  0  0  0  0  0  0  0
   -3.0252    2.0586   -1.2605 H   0  0  0  0  0  0  0  0  0  0  0  0
    0.7906    0.1748    1.5166 H   0  0  0  0  0  0  0  0  0  0  0  0
    2.2361    3.5762   -0.7057 H   0  0  0  0  0  0  0  0  0  0  0  0
   -1.5184    5.1914    1.9245 H   0  0  0  0  0  0  0  0  0  0  0  0
   -4.6336    2.9223   -0.0718 H   0  0  0  0  0  0  0  0  0  0  0  0
    3.0812   -0.5186    1.9774 H   0  0  0  0  0  0  0  0  0  0  0  0
    4.5626    2.8787   -0.2342 H   0  0  0  0  0  0  0  0  0  0  0  0
   -3.2438    6.6144    2.9535 H   0  0  0  0  0  0  0  0  0  0  0  0
   -6.3200    4.3672    0.9484 H   0  0  0  0  0  0  0  0  0  0  0  0
    6.7633   -0.2315    2.0085 H   0  0  0  0  0  0  0  0  0  0  0  0
    5.1665   -0.4203    2.6985 H   0  0  0  0  0  0  0  0  0  0  0  0
    6.3748   -0.6822   -0.8955 H   0  0  0  0  0  0  0  0  0  0  0  0
    4.7922   -2.8177    2.5079 H   0  0  0  0  0  0  0  0  0  0  0  0
    6.1772   -2.7290   -2.2637 H   0  0  0  0  0  0  0  0  0  0  0  0
    4.5963   -4.8540    1.1309 H   0  0  0  0  0  0  0  0  0  0  0  0
  1  2  1  0
  2  3  1  0
  1  4  1  0
  5  1  1  0
  4  6  2  0
  4  7  1  0
  8  5  1  0
  9  8  1  0
 10  9  1  0
  3 11  1  0
 11 12  2  0
 13 11  1  0
 12 14  1  0
 15 13  2  0
 13 16  1  0
 14 17  1  0
 14 15  1  0
 16 18  2  0
 19 16  1  0
 17 20  2  0
 21 17  1  0
 18 22  1  0
 23 19  2  0
 20 24  1  0
 25 21  2  0
 22 26  2  0
 26 23  1  0
 24 27  2  0
 27 25  1  0
 26 28  1  0
 27 29  1  0
 28 30  1  0
 30 31  1  0
 31 32  2  0
 33 31  1  0
 32 34  1  0
 35 33  2  0
 34 36  2  0
 36 35  1  0
 36 37  1  0
  1 38  1  6
  2 39  1  0
  2 40  1  0
  3 41  1  0
  3 42  1  0
  5 43  1  0
  5 44  1  0
  8 45  1  0
  8 46  1  0
 10 47  1  0
 10 48  1  0
 10 49  1  0
 12 50  1  0
 18 51  1  0
 19 52  1  0
 20 53  1  0
 21 54  1  0
 22 55  1  0
 23 56  1  0
 24 57  1  0
 25 58  1  0
 30 59  1  0
 30 60  1  0
 32 61  1  0
 33 62  1  0
 34 63  1  0
 35 64  1  0
M  CHG  2   2   1   7  -1
M  END
>  <SMILES_raw>  (61) 
CSCC[C@@H](C(O)=O)NCC1=CN(C2=CC=C(Cl)C=C2)N=C1C3=CC=C(OCC4=CC=C(Cl)C=C4)C=C3

>  <Protonation_Method>  (61) 
MolScrub

>  <Target_pH>  (61) 
7.4

$$$$
N-((3-(4-((4-chlorobenzyl)oxy)phenyl)-1-(4-chlorophenyl)-1H-pyrazol-4-yl)methyl)-L-tyrosin
     RDKit          3D

 68 72  0  0  0  0  0  0  0  0999 V2000
   -2.7771    1.2540    0.9338 C   0  0  2  0  0  0  0  0  0  0  0  0
   -1.8152    0.1639    0.4074 N   0  0  0  0  0  0  0  0  0  0  0  0
   -1.9383   -1.1571    1.0802 C   0  0  0  0  0  0  0  0  0  0  0  0
   -2.4842    1.5222    2.4427 C   0  0  0  0  0  0  0  0  0  0  0  0
   -4.2190    0.9053    0.5508 C   0  0  0  0  0  0  0  0  0  0  0  0
   -3.4570    1.7193    3.2026 O   0  0  0  0  0  0  0  0  0  0  0  0
   -1.2442    1.3634    2.6834 O   0  0  0  0  0  0  0  0  0  0  0  0
   -4.9925    2.1121    0.0712 C   0  0  0  0  0  0  0  0  0  0  0  0
   -5.5981    2.9744    0.9964 C   0  0  0  0  0  0  0  0  0  0  0  0
   -5.0926    2.4033   -1.2974 C   0  0  0  0  0  0  0  0  0  0  0  0
   -6.2972    4.1032    0.5648 C   0  0  0  0  0  0  0  0  0  0  0  0
   -5.7914    3.5324   -1.7287 C   0  0  0  0  0  0  0  0  0  0  0  0
   -6.3890    4.3719   -0.7959 C   0  0  0  0  0  0  0  0  0  0  0  0
   -7.0600    5.4643   -1.2603 O   0  0  0  0  0  0  0  0  0  0  0  0
   -1.2093   -2.2335    0.3578 C   0  0  0  0  0  0  0  0  0  0  0  0
   -1.7358   -3.4367   -0.0755 C   0  0  0  0  0  0  0  0  0  0  0  0
    0.1551   -2.2826   -0.0491 C   0  0  0  0  0  0  0  0  0  0  0  0
   -0.7231   -4.1379   -0.6893 N   0  0  0  0  0  0  0  0  0  0  0  0
    0.4115   -3.4059   -0.7295 N   0  0  0  0  0  0  0  0  0  0  0  0
    1.2035   -1.2789    0.1273 C   0  0  0  0  0  0  0  0  0  0  0  0
   -0.7692   -5.4459   -1.2493 C   0  0  0  0  0  0  0  0  0  0  0  0
    2.0098   -0.9195   -0.9618 C   0  0  0  0  0  0  0  0  0  0  0  0
    1.4205   -0.6578    1.3605 C   0  0  0  0  0  0  0  0  0  0  0  0
    0.3886   -5.9841   -1.8369 C   0  0  0  0  0  0  0  0  0  0  0  0
   -1.9439   -6.2123   -1.2174 C   0  0  0  0  0  0  0  0  0  0  0  0
    3.0092    0.0511   -0.8267 C   0  0  0  0  0  0  0  0  0  0  0  0
    2.4151    0.3167    1.4897 C   0  0  0  0  0  0  0  0  0  0  0  0
    0.3714   -7.2711   -2.3829 C   0  0  0  0  0  0  0  0  0  0  0  0
   -1.9546   -7.4995   -1.7677 C   0  0  0  0  0  0  0  0  0  0  0  0
    3.2190    0.6698    0.4041 C   0  0  0  0  0  0  0  0  0  0  0  0
   -0.7987   -8.0241   -2.3444 C   0  0  0  0  0  0  0  0  0  0  0  0
    4.1618    1.6205    0.6762 O   0  0  0  0  0  0  0  0  0  0  0  0
   -0.8216   -9.6081   -3.0136 Cl  0  0  0  0  0  0  0  0  0  0  0  0
    5.1343    1.8776   -0.3330 C   0  0  0  0  0  0  0  0  0  0  0  0
    6.1840    2.7931    0.2491 C   0  0  0  0  0  0  0  0  0  0  0  0
    6.0205    4.1854    0.2048 C   0  0  0  0  0  0  0  0  0  0  0  0
    7.3185    2.2599    0.8790 C   0  0  0  0  0  0  0  0  0  0  0  0
    6.9868    5.0296    0.7571 C   0  0  0  0  0  0  0  0  0  0  0  0
    8.2843    3.1041    1.4312 C   0  0  0  0  0  0  0  0  0  0  0  0
    8.1158    4.4853    1.3650 C   0  0  0  0  0  0  0  0  0  0  0  0
    9.3079    5.5252    2.0417 Cl  0  0  0  0  0  0  0  0  0  0  0  0
   -2.4488    2.1525    0.3952 H   0  0  0  0  0  0  0  0  0  0  0  0
   -1.7873    0.1196   -0.6109 H   0  0  0  0  0  0  0  0  0  0  0  0
   -0.9107    0.5411    0.7504 H   0  0  0  0  0  0  0  0  0  0  0  0
   -1.5713   -1.0704    2.1067 H   0  0  0  0  0  0  0  0  0  0  0  0
   -3.0042   -1.4040    1.1219 H   0  0  0  0  0  0  0  0  0  0  0  0
   -4.7569    0.4450    1.3882 H   0  0  0  0  0  0  0  0  0  0  0  0
   -4.2387    0.1590   -0.2540 H   0  0  0  0  0  0  0  0  0  0  0  0
   -5.5239    2.7771    2.0665 H   0  0  0  0  0  0  0  0  0  0  0  0
   -4.6304    1.7604   -2.0424 H   0  0  0  0  0  0  0  0  0  0  0  0
   -6.7539    4.7544    1.3038 H   0  0  0  0  0  0  0  0  0  0  0  0
   -5.8724    3.7577   -2.7880 H   0  0  0  0  0  0  0  0  0  0  0  0
   -7.3973    5.9622   -0.4968 H   0  0  0  0  0  0  0  0  0  0  0  0
   -2.7323   -3.8416    0.0214 H   0  0  0  0  0  0  0  0  0  0  0  0
    1.8691   -1.4015   -1.9277 H   0  0  0  0  0  0  0  0  0  0  0  0
    0.8436   -0.9191    2.2446 H   0  0  0  0  0  0  0  0  0  0  0  0
    1.3170   -5.4149   -1.8753 H   0  0  0  0  0  0  0  0  0  0  0  0
   -2.8639   -5.8525   -0.7683 H   0  0  0  0  0  0  0  0  0  0  0  0
    3.6032    0.2952   -1.7005 H   0  0  0  0  0  0  0  0  0  0  0  0
    2.5691    0.7986    2.4543 H   0  0  0  0  0  0  0  0  0  0  0  0
    1.2753   -7.6772   -2.8302 H   0  0  0  0  0  0  0  0  0  0  0  0
   -2.8674   -8.0904   -1.7384 H   0  0  0  0  0  0  0  0  0  0  0  0
    4.6656    2.3609   -1.1993 H   0  0  0  0  0  0  0  0  0  0  0  0
    5.6143    0.9478   -0.6643 H   0  0  0  0  0  0  0  0  0  0  0  0
    5.1349    4.6197   -0.2540 H   0  0  0  0  0  0  0  0  0  0  0  0
    7.4523    1.1822    0.9499 H   0  0  0  0  0  0  0  0  0  0  0  0
    6.8496    6.1065    0.7155 H   0  0  0  0  0  0  0  0  0  0  0  0
    9.1595    2.6789    1.9144 H   0  0  0  0  0  0  0  0  0  0  0  0
  1  2  1  0
  2  3  1  0
  1  4  1  0
  5  1  1  0
  4  6  2  0
  4  7  1  0
  8  5  1  0
  9  8  2  0
  8 10  1  0
 11  9  1  0
 10 12  2  0
 13 11  2  0
 12 13  1  0
 14 13  1  0
  3 15  1  0
 15 16  2  0
 17 15  1  0
 16 18  1  0
 19 17  2  0
 17 20  1  0
 18 21  1  0
 18 19  1  0
 20 22  2  0
 23 20  1  0
 21 24  2  0
 25 21  1  0
 22 26  1  0
 27 23  2  0
 24 28  1  0
 29 25  2  0
 26 30  2  0
 30 27  1  0
 28 31  2  0
 31 29  1  0
 30 32  1  0
 31 33  1  0
 32 34  1  0
 34 35  1  0
 35 36  2  0
 37 35  1  0
 36 38  1  0
 39 37  2  0
 38 40  2  0
 40 39  1  0
 40 41  1  0
  1 42  1  6
  2 43  1  0
  2 44  1  0
  3 45  1  0
  3 46  1  0
  5 47  1  0
  5 48  1  0
  9 49  1  0
 10 50  1  0
 11 51  1  0
 12 52  1  0
 14 53  1  0
 16 54  1  0
 22 55  1  0
 23 56  1  0
 24 57  1  0
 25 58  1  0
 26 59  1  0
 27 60  1  0
 28 61  1  0
 29 62  1  0
 34 63  1  0
 34 64  1  0
 36 65  1  0
 37 66  1  0
 38 67  1  0
 39 68  1  0
M  CHG  2   2   1   7  -1
M  END
>  <SMILES_raw>  (62) 
OC1=CC=C(C=C1)C[C@@H](C(O)=O)NCC2=CN(C3=CC=C(Cl)C=C3)N=C2C4=CC=C(OCC5=CC=C(Cl)C=C5)C=C4

>  <Protonation_Method>  (62) 
MolScrub

>  <Target_pH>  (62) 
7.4

$$$$
4-(((3-(4-((4-chlorobenzyl)oxy)phenyl)-1-(4-chlorophenyl)-1H-pyrazol-4-yl)methyl)amino)benzoic acid
     RDKit          3D

 60 64  0  0  0  0  0  0  0  0999 V2000
   -4.6721   -3.8338    0.3791 C   0  0  0  0  0  0  0  0  0  0  0  0
   -5.4855   -4.9180   -0.3021 C   0  0  0  0  0  0  0  0  0  0  0  0
   -6.4941   -5.3683    0.3281 O   0  0  0  0  0  0  0  0  0  0  0  0
   -5.1002   -5.2977   -1.4543 O   0  0  0  0  0  0  0  0  0  0  0  0
   -5.0402   -3.3334    1.6350 C   0  0  0  0  0  0  0  0  0  0  0  0
   -3.5256   -3.2998   -0.2250 C   0  0  0  0  0  0  0  0  0  0  0  0
   -4.2829   -2.3356    2.2640 C   0  0  0  0  0  0  0  0  0  0  0  0
   -2.7726   -2.2994    0.4066 C   0  0  0  0  0  0  0  0  0  0  0  0
   -3.1386   -1.7953    1.6601 C   0  0  0  0  0  0  0  0  0  0  0  0
   -2.4107   -0.8375    2.3477 N   0  0  0  0  0  0  0  0  0  0  0  0
   -1.2083   -0.2006    1.8400 C   0  0  0  0  0  0  0  0  0  0  0  0
   -1.4007    0.9218    0.8715 C   0  0  0  0  0  0  0  0  0  0  0  0
   -2.4901    1.7649    0.7698 C   0  0  0  0  0  0  0  0  0  0  0  0
   -0.5299    1.3484   -0.1709 C   0  0  0  0  0  0  0  0  0  0  0  0
   -2.2571    2.6176   -0.2798 N   0  0  0  0  0  0  0  0  0  0  0  0
   -1.0447    2.3897   -0.8395 N   0  0  0  0  0  0  0  0  0  0  0  0
    0.7561    0.7779   -0.5645 C   0  0  0  0  0  0  0  0  0  0  0  0
   -3.1036    3.6523   -0.7733 C   0  0  0  0  0  0  0  0  0  0  0  0
    1.7693    0.5571    0.3771 C   0  0  0  0  0  0  0  0  0  0  0  0
    0.9800    0.4291   -1.9032 C   0  0  0  0  0  0  0  0  0  0  0  0
   -2.6587    4.4609   -1.8330 C   0  0  0  0  0  0  0  0  0  0  0  0
   -4.3729    3.8804   -0.2211 C   0  0  0  0  0  0  0  0  0  0  0  0
    2.9752   -0.0402   -0.0084 C   0  0  0  0  0  0  0  0  0  0  0  0
    2.1844   -0.1657   -2.2867 C   0  0  0  0  0  0  0  0  0  0  0  0
   -3.4684    5.4890   -2.3256 C   0  0  0  0  0  0  0  0  0  0  0  0
   -5.1834    4.9052   -0.7248 C   0  0  0  0  0  0  0  0  0  0  0  0
    3.1696   -0.4277   -1.3353 C   0  0  0  0  0  0  0  0  0  0  0  0
   -4.7271    5.7061   -1.7702 C   0  0  0  0  0  0  0  0  0  0  0  0
    4.3135   -1.0155   -1.8016 O   0  0  0  0  0  0  0  0  0  0  0  0
   -5.7251    6.9720   -2.3754 Cl  0  0  0  0  0  0  0  0  0  0  0  0
    4.8454   -2.0534   -0.9699 C   0  0  0  0  0  0  0  0  0  0  0  0
    6.0561   -1.5891   -0.1899 C   0  0  0  0  0  0  0  0  0  0  0  0
    6.9857   -0.7040   -0.7585 C   0  0  0  0  0  0  0  0  0  0  0  0
    6.2910   -2.0813    1.1039 C   0  0  0  0  0  0  0  0  0  0  0  0
    8.1122   -0.2972   -0.0389 C   0  0  0  0  0  0  0  0  0  0  0  0
    7.4175   -1.6740    1.8244 C   0  0  0  0  0  0  0  0  0  0  0  0
    8.3213   -0.7810    1.2513 C   0  0  0  0  0  0  0  0  0  0  0  0
    9.7061   -0.2725    2.1402 Cl  0  0  0  0  0  0  0  0  0  0  0  0
   -5.9263   -3.7358    2.1255 H   0  0  0  0  0  0  0  0  0  0  0  0
   -3.2153   -3.6758   -1.1992 H   0  0  0  0  0  0  0  0  0  0  0  0
   -4.6055   -1.9898    3.2435 H   0  0  0  0  0  0  0  0  0  0  0  0
   -1.8984   -1.9311   -0.1190 H   0  0  0  0  0  0  0  0  0  0  0  0
   -2.8236   -0.4542    3.1899 H   0  0  0  0  0  0  0  0  0  0  0  0
   -0.6786    0.2198    2.7078 H   0  0  0  0  0  0  0  0  0  0  0  0
   -0.5274   -0.9593    1.4324 H   0  0  0  0  0  0  0  0  0  0  0  0
   -3.4038    1.7827    1.3436 H   0  0  0  0  0  0  0  0  0  0  0  0
    1.6364    0.8580    1.4136 H   0  0  0  0  0  0  0  0  0  0  0  0
    0.2078    0.6082   -2.6493 H   0  0  0  0  0  0  0  0  0  0  0  0
   -1.6804    4.2995   -2.2846 H   0  0  0  0  0  0  0  0  0  0  0  0
   -4.7653    3.2777    0.5932 H   0  0  0  0  0  0  0  0  0  0  0  0
    3.7534   -0.1769    0.7360 H   0  0  0  0  0  0  0  0  0  0  0  0
    2.3427   -0.4410   -3.3263 H   0  0  0  0  0  0  0  0  0  0  0  0
   -3.1079    6.1108   -3.1393 H   0  0  0  0  0  0  0  0  0  0  0  0
   -6.1712    5.0646   -0.3007 H   0  0  0  0  0  0  0  0  0  0  0  0
    5.1689   -2.8612   -1.6375 H   0  0  0  0  0  0  0  0  0  0  0  0
    4.0786   -2.4842   -0.3113 H   0  0  0  0  0  0  0  0  0  0  0  0
    6.8300   -0.3216   -1.7666 H   0  0  0  0  0  0  0  0  0  0  0  0
    5.5949   -2.7828    1.5620 H   0  0  0  0  0  0  0  0  0  0  0  0
    8.8177    0.3967   -0.4901 H   0  0  0  0  0  0  0  0  0  0  0  0
    7.5827   -2.0556    2.8291 H   0  0  0  0  0  0  0  0  0  0  0  0
  1  2  1  0
  2  3  2  0
  2  4  1  0
  1  5  2  0
  6  1  1  0
  5  7  1  0
  8  6  2  0
  7  9  2  0
  9  8  1  0
  9 10  1  0
 10 11  1  0
 11 12  1  0
 12 13  2  0
 14 12  1  0
 13 15  1  0
 16 14  2  0
 14 17  1  0
 15 18  1  0
 15 16  1  0
 17 19  2  0
 20 17  1  0
 18 21  2  0
 22 18  1  0
 19 23  1  0
 24 20  2  0
 21 25  1  0
 26 22  2  0
 23 27  2  0
 27 24  1  0
 25 28  2  0
 28 26  1  0
 27 29  1  0
 28 30  1  0
 29 31  1  0
 31 32  1  0
 32 33  2  0
 34 32  1  0
 33 35  1  0
 36 34  2  0
 35 37  2  0
 37 36  1  0
 37 38  1  0
  5 39  1  0
  6 40  1  0
  7 41  1  0
  8 42  1  0
 10 43  1  0
 11 44  1  0
 11 45  1  0
 13 46  1  0
 19 47  1  0
 20 48  1  0
 21 49  1  0
 22 50  1  0
 23 51  1  0
 24 52  1  0
 25 53  1  0
 26 54  1  0
 31 55  1  0
 31 56  1  0
 33 57  1  0
 34 58  1  0
 35 59  1  0
 36 60  1  0
M  CHG  1   4  -1
M  END
>  <SMILES_raw>  (63) 
O=C(O)C1=CC=C(NCC2=CN(C3=CC=C(Cl)C=C3)N=C2C4=CC=C(OCC5=CC=C(Cl)C=C5)C=C4)C=C1

>  <Protonation_Method>  (63) 
MolScrub

>  <Target_pH>  (63) 
7.4

$$$$
N-((3-(4-((4chlorobenzyl)ox y)phenyl)-1-phenyl-1H-pyrazol-4yl)methyl)-L-leucin
     RDKit          3D

 66 69  0  0  0  0  0  0  0  0999 V2000
   -3.4828   -1.7035   -0.8918 C   0  0  2  0  0  0  0  0  0  0  0  0
   -2.8225   -0.4688   -0.2527 N   0  0  0  0  0  0  0  0  0  0  0  0
   -1.9009    0.2615   -1.1519 C   0  0  0  0  0  0  0  0  0  0  0  0
   -4.7436   -1.2157   -1.6807 C   0  0  0  0  0  0  0  0  0  0  0  0
   -3.8823   -2.6383    0.2553 C   0  0  0  0  0  0  0  0  0  0  0  0
   -5.0826   -0.0554   -1.2709 O   0  0  0  0  0  0  0  0  0  0  0  0
   -5.1585   -1.9417   -2.6090 O   0  0  0  0  0  0  0  0  0  0  0  0
   -4.4646   -4.0000   -0.1770 C   0  0  0  0  0  0  0  0  0  0  0  0
   -3.4877   -4.8098   -1.0306 C   0  0  0  0  0  0  0  0  0  0  0  0
   -4.8634   -4.8118    1.0604 C   0  0  0  0  0  0  0  0  0  0  0  0
   -1.5724    1.5943   -0.5928 C   0  0  0  0  0  0  0  0  0  0  0  0
   -2.4274    2.6704   -0.4401 C   0  0  0  0  0  0  0  0  0  0  0  0
   -0.3244    2.0728   -0.1214 C   0  0  0  0  0  0  0  0  0  0  0  0
   -1.6956    3.7129    0.0838 N   0  0  0  0  0  0  0  0  0  0  0  0
   -0.4103    3.3384    0.2964 N   0  0  0  0  0  0  0  0  0  0  0  0
    0.9434    1.3637   -0.0666 C   0  0  0  0  0  0  0  0  0  0  0  0
   -2.1365    5.0288    0.3957 C   0  0  0  0  0  0  0  0  0  0  0  0
    1.1729    0.3916    0.9139 C   0  0  0  0  0  0  0  0  0  0  0  0
    1.9416    1.6520   -1.0009 C   0  0  0  0  0  0  0  0  0  0  0  0
   -3.4593    5.4282    0.1607 C   0  0  0  0  0  0  0  0  0  0  0  0
   -1.2284    5.9476    0.9474 C   0  0  0  0  0  0  0  0  0  0  0  0
    2.3937   -0.2943    0.9563 C   0  0  0  0  0  0  0  0  0  0  0  0
    3.1547    0.9615   -0.9572 C   0  0  0  0  0  0  0  0  0  0  0  0
   -3.8621    6.7298    0.4760 C   0  0  0  0  0  0  0  0  0  0  0  0
   -1.6389    7.2455    1.2597 C   0  0  0  0  0  0  0  0  0  0  0  0
    3.3897   -0.0103    0.0202 C   0  0  0  0  0  0  0  0  0  0  0  0
   -2.9556    7.6361    1.0245 C   0  0  0  0  0  0  0  0  0  0  0  0
    4.6219   -0.5958   -0.0513 O   0  0  0  0  0  0  0  0  0  0  0  0
    4.9765   -1.5108    0.9816 C   0  0  0  0  0  0  0  0  0  0  0  0
    6.4007   -1.9509    0.7414 C   0  0  0  0  0  0  0  0  0  0  0  0
    7.4720   -1.1709    1.2035 C   0  0  0  0  0  0  0  0  0  0  0  0
    6.6731   -3.1203    0.0152 C   0  0  0  0  0  0  0  0  0  0  0  0
    8.7908   -1.5650    0.9621 C   0  0  0  0  0  0  0  0  0  0  0  0
    7.9919   -3.5145   -0.2250 C   0  0  0  0  0  0  0  0  0  0  0  0
    9.0452   -2.7364    0.2519 C   0  0  0  0  0  0  0  0  0  0  0  0
   10.6703   -3.2212   -0.0445 Cl  0  0  0  0  0  0  0  0  0  0  0  0
   -2.7344   -2.1507   -1.5525 H   0  0  0  0  0  0  0  0  0  0  0  0
   -2.4659   -0.6119    0.6922 H   0  0  0  0  0  0  0  0  0  0  0  0
   -3.6716    0.1456   -0.1832 H   0  0  0  0  0  0  0  0  0  0  0  0
   -1.0156   -0.3677   -1.2766 H   0  0  0  0  0  0  0  0  0  0  0  0
   -2.3904    0.3730   -2.1250 H   0  0  0  0  0  0  0  0  0  0  0  0
   -4.6218   -2.1310    0.8901 H   0  0  0  0  0  0  0  0  0  0  0  0
   -3.0058   -2.8202    0.8922 H   0  0  0  0  0  0  0  0  0  0  0  0
   -5.3776   -3.8339   -0.7609 H   0  0  0  0  0  0  0  0  0  0  0  0
   -2.5336   -4.9565   -0.5128 H   0  0  0  0  0  0  0  0  0  0  0  0
   -3.2853   -4.3145   -1.9849 H   0  0  0  0  0  0  0  0  0  0  0  0
   -3.9026   -5.7974   -1.2606 H   0  0  0  0  0  0  0  0  0  0  0  0
   -3.9944   -5.0358    1.6922 H   0  0  0  0  0  0  0  0  0  0  0  0
   -5.3247   -5.7624    0.7686 H   0  0  0  0  0  0  0  0  0  0  0  0
   -5.5911   -4.2630    1.6695 H   0  0  0  0  0  0  0  0  0  0  0  0
   -3.4770    2.7701   -0.6809 H   0  0  0  0  0  0  0  0  0  0  0  0
    0.4196    0.1804    1.6691 H   0  0  0  0  0  0  0  0  0  0  0  0
    1.7865    2.4200   -1.7561 H   0  0  0  0  0  0  0  0  0  0  0  0
   -4.2015    4.7617   -0.2692 H   0  0  0  0  0  0  0  0  0  0  0  0
   -0.1942    5.6675    1.1394 H   0  0  0  0  0  0  0  0  0  0  0  0
    2.5373   -1.0323    1.7392 H   0  0  0  0  0  0  0  0  0  0  0  0
    3.9330    1.1919   -1.6825 H   0  0  0  0  0  0  0  0  0  0  0  0
   -4.8886    7.0385    0.2906 H   0  0  0  0  0  0  0  0  0  0  0  0
   -0.9289    7.9506    1.6848 H   0  0  0  0  0  0  0  0  0  0  0  0
   -3.2759    8.6463    1.2670 H   0  0  0  0  0  0  0  0  0  0  0  0
    4.3142   -2.3854    0.9637 H   0  0  0  0  0  0  0  0  0  0  0  0
    4.9087   -1.0341    1.9680 H   0  0  0  0  0  0  0  0  0  0  0  0
    7.2841   -0.2462    1.7463 H   0  0  0  0  0  0  0  0  0  0  0  0
    5.8598   -3.7283   -0.3757 H   0  0  0  0  0  0  0  0  0  0  0  0
    9.6117   -0.9508    1.3234 H   0  0  0  0  0  0  0  0  0  0  0  0
    8.1879   -4.4232   -0.7883 H   0  0  0  0  0  0  0  0  0  0  0  0
  1  2  1  0
  2  3  1  0
  1  4  1  0
  5  1  1  0
  4  6  2  0
  4  7  1  0
  8  5  1  0
  9  8  1  0
  8 10  1  0
  3 11  1  0
 11 12  2  0
 13 11  1  0
 12 14  1  0
 15 13  2  0
 13 16  1  0
 14 17  1  0
 14 15  1  0
 16 18  2  0
 19 16  1  0
 17 20  2  0
 21 17  1  0
 18 22  1  0
 23 19  2  0
 20 24  1  0
 25 21  2  0
 22 26  2  0
 26 23  1  0
 24 27  2  0
 27 25  1  0
 26 28  1  0
 28 29  1  0
 29 30  1  0
 30 31  2  0
 32 30  1  0
 31 33  1  0
 34 32  2  0
 33 35  2  0
 35 34  1  0
 35 36  1  0
  1 37  1  6
  2 38  1  0
  2 39  1  0
  3 40  1  0
  3 41  1  0
  5 42  1  0
  5 43  1  0
  8 44  1  0
  9 45  1  0
  9 46  1  0
  9 47  1  0
 10 48  1  0
 10 49  1  0
 10 50  1  0
 12 51  1  0
 18 52  1  0
 19 53  1  0
 20 54  1  0
 21 55  1  0
 22 56  1  0
 23 57  1  0
 24 58  1  0
 25 59  1  0
 27 60  1  0
 29 61  1  0
 29 62  1  0
 31 63  1  0
 32 64  1  0
 33 65  1  0
 34 66  1  0
M  CHG  2   2   1   7  -1
M  END
>  <SMILES_raw>  (64) 
CC(C)C[C@@H](C(O)=O)NCC1=CN(C2=CC=CC=C2)N=C1C3=CC=C(OCC4=CC=C(Cl)C=C4)C=C3

>  <Protonation_Method>  (64) 
MolScrub

>  <Target_pH>  (64) 
7.4

$$$$
(2S)-2-(((3-(4-((4-chlorobenzyl)oxy)phenyl)-1-phenyl-1H-pyrazol-4-yl)methyl)amino)-3-methylpentanoic acid
     RDKit          3D

 66 69  0  0  0  0  0  0  0  0999 V2000
   -3.3966   -1.9845   -1.0746 C   0  0  2  0  0  0  0  0  0  0  0  0
   -2.7773   -0.7407   -0.3998 N   0  0  0  0  0  0  0  0  0  0  0  0
   -1.9638    0.1088   -1.2965 C   0  0  0  0  0  0  0  0  0  0  0  0
   -4.7456   -1.5167   -1.7140 C   0  0  0  0  0  0  0  0  0  0  0  0
   -3.5128   -3.0918   -0.0022 C   0  0  0  0  0  0  0  0  0  0  0  0
   -5.1515   -0.4584   -1.1275 O   0  0  0  0  0  0  0  0  0  0  0  0
   -5.1423   -2.1250   -2.7306 O   0  0  0  0  0  0  0  0  0  0  0  0
   -4.3407   -4.3145   -0.4595 C   0  0  0  0  0  0  0  0  0  0  0  0
   -2.1057   -3.5859    0.3919 C   0  0  0  0  0  0  0  0  0  0  0  0
   -5.8251   -4.1981   -0.1326 C   0  0  0  0  0  0  0  0  0  0  0  0
   -1.6781    1.4087   -0.6448 C   0  0  0  0  0  0  0  0  0  0  0  0
   -2.5678    2.4421   -0.4111 C   0  0  0  0  0  0  0  0  0  0  0  0
   -0.4533    1.8750   -0.1078 C   0  0  0  0  0  0  0  0  0  0  0  0
   -1.8790    3.4462    0.2327 N   0  0  0  0  0  0  0  0  0  0  0  0
   -0.5861    3.0904    0.4337 N   0  0  0  0  0  0  0  0  0  0  0  0
    0.8310    1.1954   -0.0979 C   0  0  0  0  0  0  0  0  0  0  0  0
   -2.3703    4.7041    0.6809 C   0  0  0  0  0  0  0  0  0  0  0  0
    1.2976    0.5823    1.0708 C   0  0  0  0  0  0  0  0  0  0  0  0
    1.6059    1.1503   -1.2603 C   0  0  0  0  0  0  0  0  0  0  0  0
   -3.7206    5.0519    0.5368 C   0  0  0  0  0  0  0  0  0  0  0  0
   -1.4861    5.6104    1.2885 C   0  0  0  0  0  0  0  0  0  0  0  0
    2.5339   -0.0758    1.0783 C   0  0  0  0  0  0  0  0  0  0  0  0
    2.8402    0.4971   -1.2470 C   0  0  0  0  0  0  0  0  0  0  0  0
   -4.1763    6.2882    1.0025 C   0  0  0  0  0  0  0  0  0  0  0  0
   -1.9493    6.8443    1.7480 C   0  0  0  0  0  0  0  0  0  0  0  0
    3.3146   -0.1101   -0.0798 C   0  0  0  0  0  0  0  0  0  0  0  0
   -3.2925    7.1826    1.6064 C   0  0  0  0  0  0  0  0  0  0  0  0
    4.5433   -0.6948   -0.2075 O   0  0  0  0  0  0  0  0  0  0  0  0
    5.1780   -1.1426    0.9885 C   0  0  0  0  0  0  0  0  0  0  0  0
    6.5873   -1.5592    0.6382 C   0  0  0  0  0  0  0  0  0  0  0  0
    7.6828   -0.7698    1.0207 C   0  0  0  0  0  0  0  0  0  0  0  0
    6.8165   -2.7306   -0.1012 C   0  0  0  0  0  0  0  0  0  0  0  0
    8.9835   -1.1521    0.6823 C   0  0  0  0  0  0  0  0  0  0  0  0
    8.1169   -3.1121   -0.4402 C   0  0  0  0  0  0  0  0  0  0  0  0
    9.1946   -2.3219   -0.0455 C   0  0  0  0  0  0  0  0  0  0  0  0
   10.7963   -2.7907   -0.4651 Cl  0  0  0  0  0  0  0  0  0  0  0  0
   -2.7010   -2.2883   -1.8665 H   0  0  0  0  0  0  0  0  0  0  0  0
   -2.3615   -0.8960    0.5161 H   0  0  0  0  0  0  0  0  0  0  0  0
   -3.6618   -0.1957   -0.2377 H   0  0  0  0  0  0  0  0  0  0  0  0
   -1.0521   -0.4523   -1.5236 H   0  0  0  0  0  0  0  0  0  0  0  0
   -2.5233    0.2623   -2.2262 H   0  0  0  0  0  0  0  0  0  0  0  0
   -3.9783   -2.6723    0.9003 H   0  0  0  0  0  0  0  0  0  0  0  0
   -3.9812   -5.2164    0.0494 H   0  0  0  0  0  0  0  0  0  0  0  0
   -4.2058   -4.4930   -1.5324 H   0  0  0  0  0  0  0  0  0  0  0  0
   -2.1657   -4.3311    1.1934 H   0  0  0  0  0  0  0  0  0  0  0  0
   -1.6026   -4.0520   -0.4638 H   0  0  0  0  0  0  0  0  0  0  0  0
   -1.4692   -2.7742    0.7511 H   0  0  0  0  0  0  0  0  0  0  0  0
   -5.9778   -4.0526    0.9417 H   0  0  0  0  0  0  0  0  0  0  0  0
   -6.3444   -5.1186   -0.4222 H   0  0  0  0  0  0  0  0  0  0  0  0
   -6.3046   -3.3698   -0.6567 H   0  0  0  0  0  0  0  0  0  0  0  0
   -3.6149    2.5335   -0.6625 H   0  0  0  0  0  0  0  0  0  0  0  0
    0.7119    0.6282    1.9871 H   0  0  0  0  0  0  0  0  0  0  0  0
    1.2731    1.6435   -2.1717 H   0  0  0  0  0  0  0  0  0  0  0  0
   -4.4493    4.3826    0.0848 H   0  0  0  0  0  0  0  0  0  0  0  0
   -0.4311    5.3707    1.4115 H   0  0  0  0  0  0  0  0  0  0  0  0
    2.8592   -0.5393    2.0051 H   0  0  0  0  0  0  0  0  0  0  0  0
    3.4516    0.4802   -2.1483 H   0  0  0  0  0  0  0  0  0  0  0  0
   -5.2262    6.5527    0.8972 H   0  0  0  0  0  0  0  0  0  0  0  0
   -1.2587    7.5436    2.2150 H   0  0  0  0  0  0  0  0  0  0  0  0
   -3.6513    8.1430    1.9682 H   0  0  0  0  0  0  0  0  0  0  0  0
    4.6420   -2.0061    1.4059 H   0  0  0  0  0  0  0  0  0  0  0  0
    5.2066   -0.3417    1.7400 H   0  0  0  0  0  0  0  0  0  0  0  0
    7.5334    0.1536    1.5779 H   0  0  0  0  0  0  0  0  0  0  0  0
    5.9802   -3.3465   -0.4268 H   0  0  0  0  0  0  0  0  0  0  0  0
    9.8225   -0.5307    0.9846 H   0  0  0  0  0  0  0  0  0  0  0  0
    8.2789   -4.0197   -1.0167 H   0  0  0  0  0  0  0  0  0  0  0  0
  1  2  1  0
  2  3  1  0
  1  4  1  0
  5  1  1  0
  4  6  2  0
  4  7  1  0
  8  5  1  0
  5  9  1  0
 10  8  1  0
  3 11  1  0
 11 12  2  0
 13 11  1  0
 12 14  1  0
 15 13  2  0
 13 16  1  0
 14 17  1  0
 14 15  1  0
 16 18  2  0
 19 16  1  0
 17 20  2  0
 21 17  1  0
 18 22  1  0
 23 19  2  0
 20 24  1  0
 25 21  2  0
 22 26  2  0
 26 23  1  0
 24 27  2  0
 27 25  1  0
 26 28  1  0
 28 29  1  0
 29 30  1  0
 30 31  2  0
 32 30  1  0
 31 33  1  0
 34 32  2  0
 33 35  2  0
 35 34  1  0
 35 36  1  0
  1 37  1  6
  2 38  1  0
  2 39  1  0
  3 40  1  0
  3 41  1  0
  5 42  1  0
  8 43  1  0
  8 44  1  0
  9 45  1  0
  9 46  1  0
  9 47  1  0
 10 48  1  0
 10 49  1  0
 10 50  1  0
 12 51  1  0
 18 52  1  0
 19 53  1  0
 20 54  1  0
 21 55  1  0
 22 56  1  0
 23 57  1  0
 24 58  1  0
 25 59  1  0
 27 60  1  0
 29 61  1  0
 29 62  1  0
 31 63  1  0
 32 64  1  0
 33 65  1  0
 34 66  1  0
M  CHG  2   2   1   7  -1
M  END
>  <SMILES_raw>  (65) 
CCC(C)[C@H](NCC1=CN(C2=CC=CC=C2)N=C1C3=CC=C(OCC4=CC=C(Cl)C=C4)C=C3)C(O)=O

>  <Protonation_Method>  (65) 
MolScrub

>  <Target_pH>  (65) 
7.4

$$$$
N-((3-(4-((4-chlorobenzyl)oxy)phenyl)-1-phenyl-1H-pyrazol-4-yl)methyl)-L-alanin
     RDKit          3D

 57 60  0  0  0  0  0  0  0  0999 V2000
   -2.9121    3.0203   -2.3390 C   0  0  2  0  0  0  0  0  0  0  0  0
   -2.6529    2.0847   -1.1572 N   0  0  0  0  0  0  0  0  0  0  0  0
   -2.3437    0.6704   -1.4802 C   0  0  0  0  0  0  0  0  0  0  0  0
   -4.3428    2.7591   -2.9056 C   0  0  0  0  0  0  0  0  0  0  0  0
   -1.7745    2.9554   -3.3379 C   0  0  0  0  0  0  0  0  0  0  0  0
   -4.5805    3.1320   -4.0728 O   0  0  0  0  0  0  0  0  0  0  0  0
   -5.0421    2.1393   -2.0380 O   0  0  0  0  0  0  0  0  0  0  0  0
   -2.5179   -0.1753   -0.2731 C   0  0  0  0  0  0  0  0  0  0  0  0
   -3.7075   -0.5457    0.3232 C   0  0  0  0  0  0  0  0  0  0  0  0
   -1.5191   -0.7629    0.5437 C   0  0  0  0  0  0  0  0  0  0  0  0
   -3.3995   -1.3066    1.4286 N   0  0  0  0  0  0  0  0  0  0  0  0
   -2.0542   -1.4030    1.5871 N   0  0  0  0  0  0  0  0  0  0  0  0
   -0.0777   -0.6913    0.3634 C   0  0  0  0  0  0  0  0  0  0  0  0
   -4.2953   -1.9328    2.3404 C   0  0  0  0  0  0  0  0  0  0  0  0
    0.6981    0.1142    1.2028 C   0  0  0  0  0  0  0  0  0  0  0  0
    0.5355   -1.3974   -0.6762 C   0  0  0  0  0  0  0  0  0  0  0  0
   -3.7796   -2.7063    3.3923 C   0  0  0  0  0  0  0  0  0  0  0  0
   -5.6846   -1.7984    2.2026 C   0  0  0  0  0  0  0  0  0  0  0  0
    2.0771    0.2344    0.9912 C   0  0  0  0  0  0  0  0  0  0  0  0
    1.9120   -1.2783   -0.8805 C   0  0  0  0  0  0  0  0  0  0  0  0
   -4.6427   -3.3345    4.2922 C   0  0  0  0  0  0  0  0  0  0  0  0
   -6.5414   -2.4347    3.1070 C   0  0  0  0  0  0  0  0  0  0  0  0
    2.6876   -0.4565   -0.0561 C   0  0  0  0  0  0  0  0  0  0  0  0
   -6.0218   -3.1990    4.1492 C   0  0  0  0  0  0  0  0  0  0  0  0
    4.0140   -0.4244   -0.3801 O   0  0  0  0  0  0  0  0  0  0  0  0
    4.8559    0.4355    0.3862 C   0  0  0  0  0  0  0  0  0  0  0  0
    6.2546    0.3565   -0.1791 C   0  0  0  0  0  0  0  0  0  0  0  0
    6.5060    0.7559   -1.5020 C   0  0  0  0  0  0  0  0  0  0  0  0
    7.3212   -0.1109    0.6038 C   0  0  0  0  0  0  0  0  0  0  0  0
    7.7981    0.6917   -2.0313 C   0  0  0  0  0  0  0  0  0  0  0  0
    8.6137   -0.1756    0.0738 C   0  0  0  0  0  0  0  0  0  0  0  0
    8.8467    0.2266   -1.2406 C   0  0  0  0  0  0  0  0  0  0  0  0
   10.4388    0.1458   -1.8899 Cl  0  0  0  0  0  0  0  0  0  0  0  0
   -2.9383    4.0198   -1.8886 H   0  0  0  0  0  0  0  0  0  0  0  0
   -3.6273    2.0377   -0.7840 H   0  0  0  0  0  0  0  0  0  0  0  0
   -2.0534    2.4891   -0.4391 H   0  0  0  0  0  0  0  0  0  0  0  0
   -3.0141    0.3387   -2.2801 H   0  0  0  0  0  0  0  0  0  0  0  0
   -1.3150    0.6447   -1.8503 H   0  0  0  0  0  0  0  0  0  0  0  0
   -1.7704    2.0074   -3.8857 H   0  0  0  0  0  0  0  0  0  0  0  0
   -0.8052    3.0761   -2.8427 H   0  0  0  0  0  0  0  0  0  0  0  0
   -1.8711    3.7544   -4.0822 H   0  0  0  0  0  0  0  0  0  0  0  0
   -4.7288   -0.3327    0.0361 H   0  0  0  0  0  0  0  0  0  0  0  0
    0.2338    0.6475    2.0298 H   0  0  0  0  0  0  0  0  0  0  0  0
   -0.0434   -2.0546   -1.3221 H   0  0  0  0  0  0  0  0  0  0  0  0
   -2.7059   -2.8318    3.5226 H   0  0  0  0  0  0  0  0  0  0  0  0
   -6.1379   -1.2013    1.4146 H   0  0  0  0  0  0  0  0  0  0  0  0
    2.6413    0.8690    1.6680 H   0  0  0  0  0  0  0  0  0  0  0  0
    2.3881   -1.8354   -1.6841 H   0  0  0  0  0  0  0  0  0  0  0  0
   -4.2358   -3.9301    5.1049 H   0  0  0  0  0  0  0  0  0  0  0  0
   -7.6184   -2.3294    2.9968 H   0  0  0  0  0  0  0  0  0  0  0  0
   -6.6925   -3.6897    4.8500 H   0  0  0  0  0  0  0  0  0  0  0  0
    4.8569    0.1205    1.4370 H   0  0  0  0  0  0  0  0  0  0  0  0
    4.5138    1.4773    0.3194 H   0  0  0  0  0  0  0  0  0  0  0  0
    5.6893    1.1109   -2.1289 H   0  0  0  0  0  0  0  0  0  0  0  0
    7.1550   -0.4351    1.6302 H   0  0  0  0  0  0  0  0  0  0  0  0
    7.9775    1.0009   -3.0584 H   0  0  0  0  0  0  0  0  0  0  0  0
    9.4321   -0.5424    0.6889 H   0  0  0  0  0  0  0  0  0  0  0  0
  1  2  1  0
  2  3  1  0
  1  4  1  0
  5  1  1  0
  4  6  2  0
  4  7  1  0
  3  8  1  0
  8  9  2  0
 10  8  1  0
  9 11  1  0
 12 10  2  0
 10 13  1  0
 11 14  1  0
 11 12  1  0
 13 15  2  0
 16 13  1  0
 14 17  2  0
 18 14  1  0
 15 19  1  0
 20 16  2  0
 17 21  1  0
 22 18  2  0
 19 23  2  0
 23 20  1  0
 21 24  2  0
 24 22  1  0
 23 25  1  0
 25 26  1  0
 26 27  1  0
 27 28  2  0
 29 27  1  0
 28 30  1  0
 31 29  2  0
 30 32  2  0
 32 31  1  0
 32 33  1  0
  1 34  1  1
  2 35  1  0
  2 36  1  0
  3 37  1  0
  3 38  1  0
  5 39  1  0
  5 40  1  0
  5 41  1  0
  9 42  1  0
 15 43  1  0
 16 44  1  0
 17 45  1  0
 18 46  1  0
 19 47  1  0
 20 48  1  0
 21 49  1  0
 22 50  1  0
 24 51  1  0
 26 52  1  0
 26 53  1  0
 28 54  1  0
 29 55  1  0
 30 56  1  0
 31 57  1  0
M  CHG  2   2   1   7  -1
M  END
>  <SMILES_raw>  (66) 
C[C@@H](C(O)=O)NCC1=CN(C2=CC=CC=C2)N=C1C3=CC=C(OCC4=CC=C(Cl)C=C4)C=C3

>  <Protonation_Method>  (66) 
MolScrub

>  <Target_pH>  (66) 
7.4

$$$$
N-((3-(4-((4-chlorobenzyl)oxy)phenyl)-1-phenyl-1H-pyrazol-4-yl)methyl)-L-phenylalanin
     RDKit          3D

 67 71  0  0  0  0  0  0  0  0999 V2000
   -2.7755   -0.9420    1.4115 C   0  0  2  0  0  0  0  0  0  0  0  0
   -1.9747   -0.9755    0.0973 N   0  0  0  0  0  0  0  0  0  0  0  0
   -2.1058    0.1173   -0.8660 C   0  0  0  0  0  0  0  0  0  0  0  0
   -1.9900   -1.7326    2.4958 C   0  0  0  0  0  0  0  0  0  0  0  0
   -4.2239   -1.3961    1.2077 C   0  0  0  0  0  0  0  0  0  0  0  0
   -0.8133   -1.9881    2.0719 O   0  0  0  0  0  0  0  0  0  0  0  0
   -2.5709   -1.9912    3.5738 O   0  0  0  0  0  0  0  0  0  0  0  0
   -4.3971   -2.5949    0.3004 C   0  0  0  0  0  0  0  0  0  0  0  0
   -4.9855   -2.4500   -0.9648 C   0  0  0  0  0  0  0  0  0  0  0  0
   -3.9702   -3.8660    0.7075 C   0  0  0  0  0  0  0  0  0  0  0  0
   -5.1289   -3.5520   -1.8117 C   0  0  0  0  0  0  0  0  0  0  0  0
   -4.1253   -4.9694   -0.1392 C   0  0  0  0  0  0  0  0  0  0  0  0
   -4.6994   -4.8124   -1.3986 C   0  0  0  0  0  0  0  0  0  0  0  0
   -1.7292    1.4543   -0.3495 C   0  0  0  0  0  0  0  0  0  0  0  0
   -2.5535    2.5280   -0.0786 C   0  0  0  0  0  0  0  0  0  0  0  0
   -0.4292    1.9216   -0.0231 C   0  0  0  0  0  0  0  0  0  0  0  0
   -1.7580    3.5498    0.4046 N   0  0  0  0  0  0  0  0  0  0  0  0
   -0.4540    3.1816    0.4139 N   0  0  0  0  0  0  0  0  0  0  0  0
    0.8219    1.1912   -0.1367 C   0  0  0  0  0  0  0  0  0  0  0  0
   -2.1566    4.8466    0.8366 C   0  0  0  0  0  0  0  0  0  0  0  0
    1.3300    0.4971    0.9622 C   0  0  0  0  0  0  0  0  0  0  0  0
    1.5060    1.1540   -1.3591 C   0  0  0  0  0  0  0  0  0  0  0  0
   -1.1890    5.7266    1.3474 C   0  0  0  0  0  0  0  0  0  0  0  0
   -3.4923    5.2655    0.7637 C   0  0  0  0  0  0  0  0  0  0  0  0
    2.5150   -0.2294    0.8324 C   0  0  0  0  0  0  0  0  0  0  0  0
    2.6949    0.4269   -1.4824 C   0  0  0  0  0  0  0  0  0  0  0  0
   -1.5527    7.0079    1.7664 C   0  0  0  0  0  0  0  0  0  0  0  0
   -3.8507    6.5466    1.1924 C   0  0  0  0  0  0  0  0  0  0  0  0
    3.2073   -0.2621   -0.3822 C   0  0  0  0  0  0  0  0  0  0  0  0
   -2.8828    7.4171    1.6871 C   0  0  0  0  0  0  0  0  0  0  0  0
    4.3615   -0.9925   -0.3574 O   0  0  0  0  0  0  0  0  0  0  0  0
    5.1566   -1.0091   -1.5411 C   0  0  0  0  0  0  0  0  0  0  0  0
    6.4190   -1.7930   -1.2591 C   0  0  0  0  0  0  0  0  0  0  0  0
    7.6811   -1.2265   -1.4958 C   0  0  0  0  0  0  0  0  0  0  0  0
    6.3451   -3.1091   -0.7775 C   0  0  0  0  0  0  0  0  0  0  0  0
    8.8468   -1.9575   -1.2453 C   0  0  0  0  0  0  0  0  0  0  0  0
    7.5095   -3.8388   -0.5234 C   0  0  0  0  0  0  0  0  0  0  0  0
    8.7554   -3.2593   -0.7578 C   0  0  0  0  0  0  0  0  0  0  0  0
   10.1906   -4.1591   -0.4438 Cl  0  0  0  0  0  0  0  0  0  0  0  0
   -2.7678    0.0977    1.7615 H   0  0  0  0  0  0  0  0  0  0  0  0
   -2.0975   -1.9051   -0.3218 H   0  0  0  0  0  0  0  0  0  0  0  0
   -1.0016   -1.0694    0.4783 H   0  0  0  0  0  0  0  0  0  0  0  0
   -3.1444    0.1120   -1.2195 H   0  0  0  0  0  0  0  0  0  0  0  0
   -1.4715   -0.1474   -1.7218 H   0  0  0  0  0  0  0  0  0  0  0  0
   -4.7032   -1.6144    2.1692 H   0  0  0  0  0  0  0  0  0  0  0  0
   -4.7938   -0.5566    0.7861 H   0  0  0  0  0  0  0  0  0  0  0  0
   -5.3670   -1.4874   -1.2950 H   0  0  0  0  0  0  0  0  0  0  0  0
   -3.5382   -4.0197    1.6971 H   0  0  0  0  0  0  0  0  0  0  0  0
   -5.5956   -3.4352   -2.7844 H   0  0  0  0  0  0  0  0  0  0  0  0
   -3.8088   -5.9565    0.1961 H   0  0  0  0  0  0  0  0  0  0  0  0
   -4.8348   -5.6752   -2.0488 H   0  0  0  0  0  0  0  0  0  0  0  0
   -3.6235    2.6405   -0.1726 H   0  0  0  0  0  0  0  0  0  0  0  0
    0.8207    0.5063    1.9252 H   0  0  0  0  0  0  0  0  0  0  0  0
    1.1288    1.7052   -2.2181 H   0  0  0  0  0  0  0  0  0  0  0  0
   -0.1443    5.4287    1.4228 H   0  0  0  0  0  0  0  0  0  0  0  0
   -4.2790    4.6327    0.3605 H   0  0  0  0  0  0  0  0  0  0  0  0
    2.9033   -0.7697    1.6939 H   0  0  0  0  0  0  0  0  0  0  0  0
    3.1973    0.4308   -2.4445 H   0  0  0  0  0  0  0  0  0  0  0  0
   -0.7938    7.6857    2.1459 H   0  0  0  0  0  0  0  0  0  0  0  0
   -4.8869    6.8715    1.1269 H   0  0  0  0  0  0  0  0  0  0  0  0
   -3.1619    8.4151    2.0092 H   0  0  0  0  0  0  0  0  0  0  0  0
    4.6175   -1.5034   -2.3615 H   0  0  0  0  0  0  0  0  0  0  0  0
    5.4173    0.0152   -1.8366 H   0  0  0  0  0  0  0  0  0  0  0  0
    7.7712   -0.2093   -1.8708 H   0  0  0  0  0  0  0  0  0  0  0  0
    5.3766   -3.5664   -0.5851 H   0  0  0  0  0  0  0  0  0  0  0  0
    9.8162   -1.4987   -1.4303 H   0  0  0  0  0  0  0  0  0  0  0  0
    7.4326   -4.8521   -0.1416 H   0  0  0  0  0  0  0  0  0  0  0  0
  1  2  1  0
  2  3  1  0
  1  4  1  0
  1  5  1  0
  4  6  2  0
  4  7  1  0
  5  8  1  0
  8  9  2  0
 10  8  1  0
  9 11  1  0
 12 10  2  0
 11 13  2  0
 13 12  1  0
  3 14  1  0
 14 15  2  0
 16 14  1  0
 15 17  1  0
 18 16  2  0
 16 19  1  0
 17 20  1  0
 17 18  1  0
 19 21  2  0
 22 19  1  0
 20 23  2  0
 24 20  1  0
 21 25  1  0
 26 22  2  0
 23 27  1  0
 28 24  2  0
 25 29  2  0
 29 26  1  0
 27 30  2  0
 30 28  1  0
 29 31  1  0
 31 32  1  0
 32 33  1  0
 33 34  2  0
 35 33  1  0
 34 36  1  0
 37 35  2  0
 36 38  2  0
 38 37  1  0
 38 39  1  0
  1 40  1  1
  2 41  1  0
  2 42  1  0
  3 43  1  0
  3 44  1  0
  5 45  1  0
  5 46  1  0
  9 47  1  0
 10 48  1  0
 11 49  1  0
 12 50  1  0
 13 51  1  0
 15 52  1  0
 21 53  1  0
 22 54  1  0
 23 55  1  0
 24 56  1  0
 25 57  1  0
 26 58  1  0
 27 59  1  0
 28 60  1  0
 30 61  1  0
 32 62  1  0
 32 63  1  0
 34 64  1  0
 35 65  1  0
 36 66  1  0
 37 67  1  0
M  CHG  2   2   1   7  -1
M  END
>  <SMILES_raw>  (67) 
O=C(O)[C@H](CC1=CC=CC=C1)NCC2=CN(C3=CC=CC=C3)N=C2C4=CC=C(OCC5=CC=C(Cl)C=C5)C=C4

>  <Protonation_Method>  (67) 
MolScrub

>  <Target_pH>  (67) 
7.4

$$$$
N-((3-(4-((4-chlorobenzyl)oxy)phenyl)-1-phenyl-1H-pyrazol-4-yl)methyl)-L-tyrosin
     RDKit          3D

 68 72  0  0  0  0  0  0  0  0999 V2000
   -2.9575    0.3065    1.6766 C   0  0  2  0  0  0  0  0  0  0  0  0
   -1.8568   -0.4980    0.9643 N   0  0  0  0  0  0  0  0  0  0  0  0
   -1.7881   -0.4096   -0.4997 C   0  0  0  0  0  0  0  0  0  0  0  0
   -2.2965    1.2538    2.7171 C   0  0  0  0  0  0  0  0  0  0  0  0
   -3.9030   -0.6335    2.4282 C   0  0  0  0  0  0  0  0  0  0  0  0
   -3.0444    2.0316    3.3481 O   0  0  0  0  0  0  0  0  0  0  0  0
   -1.0345    1.0696    2.7230 O   0  0  0  0  0  0  0  0  0  0  0  0
   -4.5513   -1.6534    1.5177 C   0  0  0  0  0  0  0  0  0  0  0  0
   -5.5170   -1.2556    0.5802 C   0  0  0  0  0  0  0  0  0  0  0  0
   -4.1849   -3.0056    1.5886 C   0  0  0  0  0  0  0  0  0  0  0  0
   -6.0944   -2.1889   -0.2837 C   0  0  0  0  0  0  0  0  0  0  0  0
   -4.7582   -3.9360    0.7209 C   0  0  0  0  0  0  0  0  0  0  0  0
   -5.7063   -3.5220   -0.2075 C   0  0  0  0  0  0  0  0  0  0  0  0
   -6.2469   -4.4700   -1.0259 O   0  0  0  0  0  0  0  0  0  0  0  0
   -1.3651    0.9143   -1.0174 C   0  0  0  0  0  0  0  0  0  0  0  0
   -2.1533    1.9646   -1.4471 C   0  0  0  0  0  0  0  0  0  0  0  0
   -0.0377    1.3867   -1.1942 C   0  0  0  0  0  0  0  0  0  0  0  0
   -1.3099    2.9829   -1.8455 N   0  0  0  0  0  0  0  0  0  0  0  0
   -0.0140    2.6008   -1.7482 N   0  0  0  0  0  0  0  0  0  0  0  0
    1.1910    0.6899   -0.8553 C   0  0  0  0  0  0  0  0  0  0  0  0
   -1.6598    4.2743   -2.3310 C   0  0  0  0  0  0  0  0  0  0  0  0
    1.6576    0.7001    0.4641 C   0  0  0  0  0  0  0  0  0  0  0  0
    1.8864   -0.0274   -1.8304 C   0  0  0  0  0  0  0  0  0  0  0  0
   -0.6444    5.1622   -2.7198 C   0  0  0  0  0  0  0  0  0  0  0  0
   -2.9982    4.6810   -2.4221 C   0  0  0  0  0  0  0  0  0  0  0  0
    2.8029   -0.0237    0.8139 C   0  0  0  0  0  0  0  0  0  0  0  0
    3.0310   -0.7458   -1.4768 C   0  0  0  0  0  0  0  0  0  0  0  0
   -0.9645    6.4357   -3.1964 C   0  0  0  0  0  0  0  0  0  0  0  0
   -3.3105    5.9580   -2.9004 C   0  0  0  0  0  0  0  0  0  0  0  0
    3.4934   -0.7512   -0.1565 C   0  0  0  0  0  0  0  0  0  0  0  0
   -2.2967    6.8324   -3.2878 C   0  0  0  0  0  0  0  0  0  0  0  0
    4.6152   -1.5045    0.0512 O   0  0  0  0  0  0  0  0  0  0  0  0
    5.2394   -1.3948    1.3302 C   0  0  0  0  0  0  0  0  0  0  0  0
    6.4947   -2.2387    1.3361 C   0  0  0  0  0  0  0  0  0  0  0  0
    6.4403   -3.5994    0.9955 C   0  0  0  0  0  0  0  0  0  0  0  0
    7.7268   -1.6833    1.7143 C   0  0  0  0  0  0  0  0  0  0  0  0
    7.5943   -4.3859    1.0234 C   0  0  0  0  0  0  0  0  0  0  0  0
    8.8815   -2.4698    1.7425 C   0  0  0  0  0  0  0  0  0  0  0  0
    8.8106   -3.8176    1.3976 C   0  0  0  0  0  0  0  0  0  0  0  0
   10.2326   -4.7857    1.4348 Cl  0  0  0  0  0  0  0  0  0  0  0  0
   -3.4842    0.8999    0.9213 H   0  0  0  0  0  0  0  0  0  0  0  0
   -1.8249   -1.4559    1.3116 H   0  0  0  0  0  0  0  0  0  0  0  0
   -1.0098   -0.0470    1.3920 H   0  0  0  0  0  0  0  0  0  0  0  0
   -1.0818   -1.1857   -0.8167 H   0  0  0  0  0  0  0  0  0  0  0  0
   -2.7708   -0.6939   -0.8919 H   0  0  0  0  0  0  0  0  0  0  0  0
   -3.3641   -1.1456    3.2373 H   0  0  0  0  0  0  0  0  0  0  0  0
   -4.6983   -0.0602    2.9217 H   0  0  0  0  0  0  0  0  0  0  0  0
   -5.8409   -0.2171    0.5260 H   0  0  0  0  0  0  0  0  0  0  0  0
   -3.4680   -3.3527    2.3293 H   0  0  0  0  0  0  0  0  0  0  0  0
   -6.8457   -1.8599   -0.9957 H   0  0  0  0  0  0  0  0  0  0  0  0
   -4.4818   -4.9861    0.7794 H   0  0  0  0  0  0  0  0  0  0  0  0
   -6.9515   -4.0634   -1.5575 H   0  0  0  0  0  0  0  0  0  0  0  0
   -3.2258    2.0695   -1.4912 H   0  0  0  0  0  0  0  0  0  0  0  0
    1.1433    1.2829    1.2285 H   0  0  0  0  0  0  0  0  0  0  0  0
    1.5529   -0.0237   -2.8658 H   0  0  0  0  0  0  0  0  0  0  0  0
    0.4041    4.8775   -2.6518 H   0  0  0  0  0  0  0  0  0  0  0  0
   -3.8211    4.0413   -2.1227 H   0  0  0  0  0  0  0  0  0  0  0  0
    3.1239    0.0084    1.8508 H   0  0  0  0  0  0  0  0  0  0  0  0
    3.5800   -1.2953   -2.2397 H   0  0  0  0  0  0  0  0  0  0  0  0
   -0.1706    7.1174   -3.4908 H   0  0  0  0  0  0  0  0  0  0  0  0
   -4.3485    6.2750   -2.9631 H   0  0  0  0  0  0  0  0  0  0  0  0
   -2.5446    7.8258   -3.6542 H   0  0  0  0  0  0  0  0  0  0  0  0
    4.5733   -1.7672    2.1192 H   0  0  0  0  0  0  0  0  0  0  0  0
    5.4953   -0.3461    1.5295 H   0  0  0  0  0  0  0  0  0  0  0  0
    5.4942   -4.0496    0.6999 H   0  0  0  0  0  0  0  0  0  0  0  0
    7.7975   -0.6324    1.9864 H   0  0  0  0  0  0  0  0  0  0  0  0
    7.5349   -5.4364    0.7522 H   0  0  0  0  0  0  0  0  0  0  0  0
    9.8293   -2.0237    2.0335 H   0  0  0  0  0  0  0  0  0  0  0  0
  1  2  1  0
  2  3  1  0
  1  4  1  0
  5  1  1  0
  4  6  2  0
  4  7  1  0
  8  5  1  0
  9  8  2  0
  8 10  1  0
 11  9  1  0
 10 12  2  0
 13 11  2  0
 12 13  1  0
 14 13  1  0
  3 15  1  0
 15 16  2  0
 17 15  1  0
 16 18  1  0
 19 17  2  0
 17 20  1  0
 18 21  1  0
 18 19  1  0
 20 22  2  0
 23 20  1  0
 21 24  2  0
 25 21  1  0
 22 26  1  0
 27 23  2  0
 24 28  1  0
 29 25  2  0
 26 30  2  0
 30 27  1  0
 28 31  2  0
 31 29  1  0
 30 32  1  0
 32 33  1  0
 33 34  1  0
 34 35  2  0
 36 34  1  0
 35 37  1  0
 38 36  2  0
 37 39  2  0
 39 38  1  0
 39 40  1  0
  1 41  1  6
  2 42  1  0
  2 43  1  0
  3 44  1  0
  3 45  1  0
  5 46  1  0
  5 47  1  0
  9 48  1  0
 10 49  1  0
 11 50  1  0
 12 51  1  0
 14 52  1  0
 16 53  1  0
 22 54  1  0
 23 55  1  0
 24 56  1  0
 25 57  1  0
 26 58  1  0
 27 59  1  0
 28 60  1  0
 29 61  1  0
 31 62  1  0
 33 63  1  0
 33 64  1  0
 35 65  1  0
 36 66  1  0
 37 67  1  0
 38 68  1  0
M  CHG  2   2   1   7  -1
M  END
>  <SMILES_raw>  (68) 
OC1=CC=C(C=C1)C[C@@H](C(O)=O)NCC2=CN(C3=CC=CC=C3)N=C2C4=CC=C(OCC5=CC=C(Cl)C=C5)C=C4

>  <Protonation_Method>  (68) 
MolScrub

>  <Target_pH>  (68) 
7.4

$$$$
N-((3-(4-((4-chlorobenzyl)oxy)phenyl)-1-phenyl-1H-pyrazol-4-yl)methyl)-L-methionin
     RDKit          3D

 64 67  0  0  0  0  0  0  0  0999 V2000
   -3.3880    1.3760   -0.1260 C   0  0  2  0  0  0  0  0  0  0  0  0
   -1.8744    1.5489    0.0612 N   0  0  0  0  0  0  0  0  0  0  0  0
   -1.1995    0.6833    1.0399 C   0  0  0  0  0  0  0  0  0  0  0  0
   -3.6568    0.8468   -1.5669 C   0  0  0  0  0  0  0  0  0  0  0  0
   -4.0822    2.7273    0.0486 C   0  0  0  0  0  0  0  0  0  0  0  0
   -4.8308    0.5318   -1.8514 O   0  0  0  0  0  0  0  0  0  0  0  0
   -2.5591    0.8101   -2.2153 O   0  0  0  0  0  0  0  0  0  0  0  0
   -4.1512    3.1360    1.5173 C   0  0  0  0  0  0  0  0  0  0  0  0
   -4.6557    4.8706    1.7363 S   0  0  0  0  0  0  0  0  0  0  0  0
   -6.3726    4.7681    1.1636 C   0  0  0  0  0  0  0  0  0  0  0  0
   -1.1644   -0.7569    0.6916 C   0  0  0  0  0  0  0  0  0  0  0  0
   -2.0795   -1.7426    1.0079 C   0  0  0  0  0  0  0  0  0  0  0  0
   -0.1513   -1.4466   -0.0276 C   0  0  0  0  0  0  0  0  0  0  0  0
   -1.6033   -2.9332    0.4954 N   0  0  0  0  0  0  0  0  0  0  0  0
   -0.3843   -2.7601   -0.0691 N   0  0  0  0  0  0  0  0  0  0  0  0
    1.0413   -0.8809   -0.6358 C   0  0  0  0  0  0  0  0  0  0  0  0
   -2.2112   -4.2190    0.5452 C   0  0  0  0  0  0  0  0  0  0  0  0
    0.9425   -0.1414   -1.8178 C   0  0  0  0  0  0  0  0  0  0  0  0
    2.2896   -1.0526   -0.0290 C   0  0  0  0  0  0  0  0  0  0  0  0
   -1.5269   -5.3245    0.0155 C   0  0  0  0  0  0  0  0  0  0  0  0
   -3.4813   -4.4043    1.1088 C   0  0  0  0  0  0  0  0  0  0  0  0
    2.0865    0.4348   -2.3748 C   0  0  0  0  0  0  0  0  0  0  0  0
    3.4333   -0.4757   -0.5926 C   0  0  0  0  0  0  0  0  0  0  0  0
   -2.1021   -6.5966    0.0567 C   0  0  0  0  0  0  0  0  0  0  0  0
   -4.0516   -5.6809    1.1438 C   0  0  0  0  0  0  0  0  0  0  0  0
    3.3363    0.2641   -1.7723 C   0  0  0  0  0  0  0  0  0  0  0  0
   -3.3630   -6.7741    0.6207 C   0  0  0  0  0  0  0  0  0  0  0  0
    4.3700    0.8874   -2.4138 O   0  0  0  0  0  0  0  0  0  0  0  0
    5.6988    0.4309   -2.1434 C   0  0  0  0  0  0  0  0  0  0  0  0
    6.3590    1.1885   -1.0113 C   0  0  0  0  0  0  0  0  0  0  0  0
    7.2903    0.5413   -0.1846 C   0  0  0  0  0  0  0  0  0  0  0  0
    6.1013    2.5526   -0.8041 C   0  0  0  0  0  0  0  0  0  0  0  0
    7.9292    1.2373    0.8445 C   0  0  0  0  0  0  0  0  0  0  0  0
    6.7400    3.2486    0.2248 C   0  0  0  0  0  0  0  0  0  0  0  0
    7.6492    2.5871    1.0462 C   0  0  0  0  0  0  0  0  0  0  0  0
    8.4359    3.4429    2.3141 Cl  0  0  0  0  0  0  0  0  0  0  0  0
   -3.7429    0.6434    0.6057 H   0  0  0  0  0  0  0  0  0  0  0  0
   -1.5955    2.5314    0.1056 H   0  0  0  0  0  0  0  0  0  0  0  0
   -1.5632    1.2529   -0.9024 H   0  0  0  0  0  0  0  0  0  0  0  0
   -0.1821    1.0770    1.1392 H   0  0  0  0  0  0  0  0  0  0  0  0
   -1.6969    0.8432    2.0031 H   0  0  0  0  0  0  0  0  0  0  0  0
   -3.5579    3.4883   -0.5444 H   0  0  0  0  0  0  0  0  0  0  0  0
   -5.1008    2.6708   -0.3530 H   0  0  0  0  0  0  0  0  0  0  0  0
   -3.1661    3.0431    1.9850 H   0  0  0  0  0  0  0  0  0  0  0  0
   -4.8335    2.4842    2.0734 H   0  0  0  0  0  0  0  0  0  0  0  0
   -6.9110    3.9854    1.7043 H   0  0  0  0  0  0  0  0  0  0  0  0
   -6.4119    4.5734    0.0892 H   0  0  0  0  0  0  0  0  0  0  0  0
   -6.8679    5.7239    1.3555 H   0  0  0  0  0  0  0  0  0  0  0  0
   -3.0153   -1.6937    1.5430 H   0  0  0  0  0  0  0  0  0  0  0  0
   -0.0132   -0.0301   -2.3302 H   0  0  0  0  0  0  0  0  0  0  0  0
    2.3788   -1.6406    0.8826 H   0  0  0  0  0  0  0  0  0  0  0  0
   -0.5436   -5.2103   -0.4379 H   0  0  0  0  0  0  0  0  0  0  0  0
   -4.0616   -3.5829    1.5161 H   0  0  0  0  0  0  0  0  0  0  0  0
    2.0038    1.0030   -3.2994 H   0  0  0  0  0  0  0  0  0  0  0  0
    4.3796   -0.6164   -0.0812 H   0  0  0  0  0  0  0  0  0  0  0  0
   -1.5655   -7.4461   -0.3580 H   0  0  0  0  0  0  0  0  0  0  0  0
   -5.0400   -5.8222    1.5747 H   0  0  0  0  0  0  0  0  0  0  0  0
   -3.8121   -7.7639    0.6463 H   0  0  0  0  0  0  0  0  0  0  0  0
    5.7225   -0.6545   -1.9846 H   0  0  0  0  0  0  0  0  0  0  0  0
    6.2861    0.6189   -3.0503 H   0  0  0  0  0  0  0  0  0  0  0  0
    7.5260   -0.5103   -0.3371 H   0  0  0  0  0  0  0  0  0  0  0  0
    5.3977    3.0803   -1.4458 H   0  0  0  0  0  0  0  0  0  0  0  0
    8.6458    0.7236    1.4797 H   0  0  0  0  0  0  0  0  0  0  0  0
    6.5269    4.3036    0.3745 H   0  0  0  0  0  0  0  0  0  0  0  0
  1  2  1  0
  2  3  1  0
  1  4  1  0
  5  1  1  0
  4  6  2  0
  4  7  1  0
  8  5  1  0
  9  8  1  0
 10  9  1  0
  3 11  1  0
 11 12  2  0
 13 11  1  0
 12 14  1  0
 15 13  2  0
 13 16  1  0
 14 17  1  0
 14 15  1  0
 16 18  2  0
 19 16  1  0
 17 20  2  0
 21 17  1  0
 18 22  1  0
 23 19  2  0
 20 24  1  0
 25 21  2  0
 22 26  2  0
 26 23  1  0
 24 27  2  0
 27 25  1  0
 26 28  1  0
 28 29  1  0
 29 30  1  0
 30 31  2  0
 32 30  1  0
 31 33  1  0
 34 32  2  0
 33 35  2  0
 35 34  1  0
 35 36  1  0
  1 37  1  1
  2 38  1  0
  2 39  1  0
  3 40  1  0
  3 41  1  0
  5 42  1  0
  5 43  1  0
  8 44  1  0
  8 45  1  0
 10 46  1  0
 10 47  1  0
 10 48  1  0
 12 49  1  0
 18 50  1  0
 19 51  1  0
 20 52  1  0
 21 53  1  0
 22 54  1  0
 23 55  1  0
 24 56  1  0
 25 57  1  0
 27 58  1  0
 29 59  1  0
 29 60  1  0
 31 61  1  0
 32 62  1  0
 33 63  1  0
 34 64  1  0
M  CHG  2   2   1   7  -1
M  END
>  <SMILES_raw>  (69) 
CSCC[C@@H](C(O)=O)NCC1=CN(C2=CC=CC=C2)N=C1C3=CC=C(OCC4=CC=C(Cl)C=C4)C=C3

>  <Protonation_Method>  (69) 
MolScrub

>  <Target_pH>  (69) 
7.4

$$$$
N-((3-(4-((4-chlorobenzyl)oxy)phenyl)-1-phenyl-1H-pyrazol-4-yl)methyl)-L-tryptophan
     RDKit          3D

 71 76  0  0  0  0  0  0  0  0999 V2000
   -0.7752   -2.2975    1.5439 C   0  0  2  0  0  0  0  0  0  0  0  0
   -0.6024   -0.8561    1.0365 N   0  0  0  0  0  0  0  0  0  0  0  0
   -0.3994    0.1131    2.1339 C   0  0  0  0  0  0  0  0  0  0  0  0
    0.5607   -2.8835    2.0651 C   0  0  0  0  0  0  0  0  0  0  0  0
   -1.2069   -3.2091    0.3912 C   0  0  0  0  0  0  0  0  0  0  0  0
    0.4761   -3.7882    2.9263 O   0  0  0  0  0  0  0  0  0  0  0  0
    1.5569   -2.2626    1.5806 O   0  0  0  0  0  0  0  0  0  0  0  0
   -2.4399   -2.7089   -0.3105 C   0  0  0  0  0  0  0  0  0  0  0  0
   -2.4936   -2.2192   -1.6014 C   0  0  0  0  0  0  0  0  0  0  0  0
   -3.7651   -2.6151    0.2280 C   0  0  0  0  0  0  0  0  0  0  0  0
   -3.7798   -1.8335   -1.8621 N   0  0  0  0  0  0  0  0  0  0  0  0
   -4.5683   -2.0324   -0.7532 C   0  0  0  0  0  0  0  0  0  0  0  0
   -4.3558   -2.9540    1.4638 C   0  0  0  0  0  0  0  0  0  0  0  0
   -5.9237   -1.7513   -0.5568 C   0  0  0  0  0  0  0  0  0  0  0  0
   -5.7092   -2.6717    1.6803 C   0  0  0  0  0  0  0  0  0  0  0  0
   -6.4776   -2.0737    0.6849 C   0  0  0  0  0  0  0  0  0  0  0  0
   -0.4295    1.5243    1.6735 C   0  0  0  0  0  0  0  0  0  0  0  0
   -1.3487    2.4775    2.0738 C   0  0  0  0  0  0  0  0  0  0  0  0
    0.4229    2.2169    0.7597 C   0  0  0  0  0  0  0  0  0  0  0  0
   -1.0232    3.6590    1.4506 N   0  0  0  0  0  0  0  0  0  0  0  0
    0.0269    3.4905    0.6196 N   0  0  0  0  0  0  0  0  0  0  0  0
    1.5628    1.7272   -0.0251 C   0  0  0  0  0  0  0  0  0  0  0  0
   -1.6539    4.9268    1.5884 C   0  0  0  0  0  0  0  0  0  0  0  0
    2.4549    0.7701    0.4676 C   0  0  0  0  0  0  0  0  0  0  0  0
    1.7838    2.2320   -1.3147 C   0  0  0  0  0  0  0  0  0  0  0  0
   -1.1478    6.0277    0.8779 C   0  0  0  0  0  0  0  0  0  0  0  0
   -2.7615    5.1030    2.4328 C   0  0  0  0  0  0  0  0  0  0  0  0
    3.5202    0.3012   -0.3187 C   0  0  0  0  0  0  0  0  0  0  0  0
    2.8590    1.7801   -2.0874 C   0  0  0  0  0  0  0  0  0  0  0  0
   -1.7389    7.2865    1.0118 C   0  0  0  0  0  0  0  0  0  0  0  0
   -3.3513    6.3651    2.5572 C   0  0  0  0  0  0  0  0  0  0  0  0
    3.7366    0.8122   -1.5951 C   0  0  0  0  0  0  0  0  0  0  0  0
   -2.8393    7.4547    1.8516 C   0  0  0  0  0  0  0  0  0  0  0  0
    4.7402    0.4741   -2.4544 O   0  0  0  0  0  0  0  0  0  0  0  0
    5.7448   -0.4470   -2.0284 C   0  0  0  0  0  0  0  0  0  0  0  0
    5.4002   -1.8585   -2.4449 C   0  0  0  0  0  0  0  0  0  0  0  0
    5.2937   -2.8860   -1.4973 C   0  0  0  0  0  0  0  0  0  0  0  0
    5.2014   -2.1615   -3.8020 C   0  0  0  0  0  0  0  0  0  0  0  0
    4.9937   -4.1899   -1.8983 C   0  0  0  0  0  0  0  0  0  0  0  0
    4.9062   -3.4660   -4.2041 C   0  0  0  0  0  0  0  0  0  0  0  0
    4.8052   -4.4748   -3.2494 C   0  0  0  0  0  0  0  0  0  0  0  0
    4.4474   -6.0838   -3.7448 Cl  0  0  0  0  0  0  0  0  0  0  0  0
   -1.5299   -2.2615    2.3344 H   0  0  0  0  0  0  0  0  0  0  0  0
   -1.3525   -0.5851    0.3975 H   0  0  0  0  0  0  0  0  0  0  0  0
    0.2917   -0.9148    0.5183 H   0  0  0  0  0  0  0  0  0  0  0  0
   -1.2118   -0.0507    2.8518 H   0  0  0  0  0  0  0  0  0  0  0  0
    0.5404   -0.1186    2.6442 H   0  0  0  0  0  0  0  0  0  0  0  0
   -1.4005   -4.2228    0.7647 H   0  0  0  0  0  0  0  0  0  0  0  0
   -0.3917   -3.3008   -0.3406 H   0  0  0  0  0  0  0  0  0  0  0  0
   -1.7283   -2.1245   -2.3622 H   0  0  0  0  0  0  0  0  0  0  0  0
   -4.1162   -1.4491   -2.7365 H   0  0  0  0  0  0  0  0  0  0  0  0
   -3.7753   -3.4368    2.2459 H   0  0  0  0  0  0  0  0  0  0  0  0
   -6.5323   -1.2988   -1.3343 H   0  0  0  0  0  0  0  0  0  0  0  0
   -6.1666   -2.9215    2.6348 H   0  0  0  0  0  0  0  0  0  0  0  0
   -7.5262   -1.8585    0.8665 H   0  0  0  0  0  0  0  0  0  0  0  0
   -2.1805    2.4044    2.7607 H   0  0  0  0  0  0  0  0  0  0  0  0
    2.3694    0.3659    1.4738 H   0  0  0  0  0  0  0  0  0  0  0  0
    1.1223    2.9909   -1.7293 H   0  0  0  0  0  0  0  0  0  0  0  0
   -0.2859    5.9242    0.2178 H   0  0  0  0  0  0  0  0  0  0  0  0
   -3.1909    4.2880    3.0092 H   0  0  0  0  0  0  0  0  0  0  0  0
    4.1535   -0.4663    0.1167 H   0  0  0  0  0  0  0  0  0  0  0  0
    3.0150    2.1918   -3.0822 H   0  0  0  0  0  0  0  0  0  0  0  0
   -1.3324    8.1356    0.4667 H   0  0  0  0  0  0  0  0  0  0  0  0
   -4.2113    6.5014    3.2107 H   0  0  0  0  0  0  0  0  0  0  0  0
   -3.2969    8.4358    1.9585 H   0  0  0  0  0  0  0  0  0  0  0  0
    5.9841   -0.3611   -0.9622 H   0  0  0  0  0  0  0  0  0  0  0  0
    6.6700   -0.1644   -2.5484 H   0  0  0  0  0  0  0  0  0  0  0  0
    5.4357   -2.6828   -0.4384 H   0  0  0  0  0  0  0  0  0  0  0  0
    5.2763   -1.3760   -4.5533 H   0  0  0  0  0  0  0  0  0  0  0  0
    4.9079   -4.9759   -1.1524 H   0  0  0  0  0  0  0  0  0  0  0  0
    4.7603   -3.6859   -5.2588 H   0  0  0  0  0  0  0  0  0  0  0  0
  1  2  1  0
  2  3  1  0
  1  4  1  0
  1  5  1  0
  4  6  2  0
  4  7  1  0
  5  8  1  0
  8  9  2  0
 10  8  1  0
  9 11  1  0
 12 10  2  0
 10 13  1  0
 11 12  1  0
 14 12  1  0
 13 15  2  0
 16 14  2  0
 15 16  1  0
  3 17  1  0
 17 18  2  0
 19 17  1  0
 18 20  1  0
 21 19  2  0
 19 22  1  0
 20 23  1  0
 20 21  1  0
 22 24  2  0
 25 22  1  0
 23 26  2  0
 27 23  1  0
 24 28  1  0
 29 25  2  0
 26 30  1  0
 31 27  2  0
 28 32  2  0
 32 29  1  0
 30 33  2  0
 33 31  1  0
 32 34  1  0
 34 35  1  0
 35 36  1  0
 36 37  2  0
 38 36  1  0
 37 39  1  0
 40 38  2  0
 39 41  2  0
 41 40  1  0
 41 42  1  0
  1 43  1  1
  2 44  1  0
  2 45  1  0
  3 46  1  0
  3 47  1  0
  5 48  1  0
  5 49  1  0
  9 50  1  0
 11 51  1  0
 13 52  1  0
 14 53  1  0
 15 54  1  0
 16 55  1  0
 18 56  1  0
 24 57  1  0
 25 58  1  0
 26 59  1  0
 27 60  1  0
 28 61  1  0
 29 62  1  0
 30 63  1  0
 31 64  1  0
 33 65  1  0
 35 66  1  0
 35 67  1  0
 37 68  1  0
 38 69  1  0
 39 70  1  0
 40 71  1  0
M  CHG  2   2   1   7  -1
M  END
>  <SMILES_raw>  (70) 
O=C(O)[C@H](CC1=CNC2=C1C=CC=C2)NCC3=CN(C4=CC=CC=C4)N=C3C5=CC=C(OCC6=CC=C(Cl)C=C6)C=C5

>  <Protonation_Method>  (70) 
MolScrub

>  <Target_pH>  (70) 
7.4

$$$$
N-((3-(4-((4-chlorobenzyl)oxy)phenyl)-1-phenyl-1H-pyrazol-4-yl)methyl)-L-glutamic acid
     RDKit          3D

 62 65  0  0  0  0  0  0  0  0999 V2000
   -1.9597    3.5123   -0.5511 C   0  0  2  0  0  0  0  0  0  0  0  0
   -2.3518    2.0718   -0.2891 N   0  0  0  0  0  0  0  0  0  0  0  0
   -1.6459    1.0895   -1.1270 C   0  0  0  0  0  0  0  0  0  0  0  0
   -0.4994    3.8157   -0.0605 C   0  0  0  0  0  0  0  0  0  0  0  0
   -2.8778    4.4887    0.2133 C   0  0  0  0  0  0  0  0  0  0  0  0
    0.1361    4.7054   -0.6847 O   0  0  0  0  0  0  0  0  0  0  0  0
   -0.1201    3.0305    0.8642 O   0  0  0  0  0  0  0  0  0  0  0  0
   -4.3440    4.1157    0.4482 C   0  0  0  0  0  0  0  0  0  0  0  0
   -5.0768    3.4830   -0.7276 C   0  0  0  0  0  0  0  0  0  0  0  0
   -5.9332    4.1853   -1.3112 O   0  0  0  0  0  0  0  0  0  0  0  0
   -4.7043    2.2883   -0.9576 O   0  0  0  0  0  0  0  0  0  0  0  0
   -1.9762   -0.3031   -0.7232 C   0  0  0  0  0  0  0  0  0  0  0  0
   -3.2252   -0.8957   -0.7433 C   0  0  0  0  0  0  0  0  0  0  0  0
   -1.1075   -1.3350   -0.2689 C   0  0  0  0  0  0  0  0  0  0  0  0
   -3.0792   -2.1910   -0.3136 N   0  0  0  0  0  0  0  0  0  0  0  0
   -1.7778   -2.4786   -0.0631 N   0  0  0  0  0  0  0  0  0  0  0  0
    0.3379   -1.2744   -0.0660 C   0  0  0  0  0  0  0  0  0  0  0  0
   -4.0926   -3.1742   -0.1316 C   0  0  0  0  0  0  0  0  0  0  0  0
    1.1704   -2.2500   -0.6255 C   0  0  0  0  0  0  0  0  0  0  0  0
    0.9165   -0.2326    0.6660 C   0  0  0  0  0  0  0  0  0  0  0  0
   -5.4387   -2.8876   -0.3973 C   0  0  0  0  0  0  0  0  0  0  0  0
   -3.7394   -4.4499    0.3364 C   0  0  0  0  0  0  0  0  0  0  0  0
    2.5595   -2.1481   -0.4983 C   0  0  0  0  0  0  0  0  0  0  0  0
    2.3071   -0.1285    0.7866 C   0  0  0  0  0  0  0  0  0  0  0  0
   -6.4150   -3.8656   -0.1927 C   0  0  0  0  0  0  0  0  0  0  0  0
   -4.7203   -5.4217    0.5398 C   0  0  0  0  0  0  0  0  0  0  0  0
    3.1350   -1.0735    0.1851 C   0  0  0  0  0  0  0  0  0  0  0  0
   -6.0579   -5.1271    0.2785 C   0  0  0  0  0  0  0  0  0  0  0  0
    4.5025   -1.0568    0.1888 O   0  0  0  0  0  0  0  0  0  0  0  0
    5.1208    0.1574    0.6213 C   0  0  0  0  0  0  0  0  0  0  0  0
    6.5806    0.1280    0.2254 C   0  0  0  0  0  0  0  0  0  0  0  0
    7.4083   -0.9367    0.6144 C   0  0  0  0  0  0  0  0  0  0  0  0
    7.1333    1.1782   -0.5237 C   0  0  0  0  0  0  0  0  0  0  0  0
    8.7586   -0.9568    0.2530 C   0  0  0  0  0  0  0  0  0  0  0  0
    8.4825    1.1581   -0.8868 C   0  0  0  0  0  0  0  0  0  0  0  0
    9.2887    0.0906   -0.4976 C   0  0  0  0  0  0  0  0  0  0  0  0
   10.9517    0.0681   -0.9503 Cl  0  0  0  0  0  0  0  0  0  0  0  0
   -2.0490    3.6698   -1.6341 H   0  0  0  0  0  0  0  0  0  0  0  0
   -2.1424    1.9022    0.6991 H   0  0  0  0  0  0  0  0  0  0  0  0
   -3.3769    1.9581   -0.4647 H   0  0  0  0  0  0  0  0  0  0  0  0
   -0.5729    1.2881   -1.0804 H   0  0  0  0  0  0  0  0  0  0  0  0
   -1.9620    1.2630   -2.1642 H   0  0  0  0  0  0  0  0  0  0  0  0
   -2.4448    4.7203    1.1957 H   0  0  0  0  0  0  0  0  0  0  0  0
   -2.8558    5.4415   -0.3354 H   0  0  0  0  0  0  0  0  0  0  0  0
   -4.4016    3.4106    1.2873 H   0  0  0  0  0  0  0  0  0  0  0  0
   -4.8861    5.0100    0.7818 H   0  0  0  0  0  0  0  0  0  0  0  0
   -4.1808   -0.4808   -1.0292 H   0  0  0  0  0  0  0  0  0  0  0  0
    0.7404   -3.0828   -1.1764 H   0  0  0  0  0  0  0  0  0  0  0  0
    0.3021    0.5276    1.1470 H   0  0  0  0  0  0  0  0  0  0  0  0
   -5.7633   -1.9163   -0.7579 H   0  0  0  0  0  0  0  0  0  0  0  0
   -2.7020   -4.6957    0.5562 H   0  0  0  0  0  0  0  0  0  0  0  0
    3.1980   -2.9010   -0.9519 H   0  0  0  0  0  0  0  0  0  0  0  0
    2.6970    0.7136    1.3494 H   0  0  0  0  0  0  0  0  0  0  0  0
   -7.4594   -3.6336   -0.3952 H   0  0  0  0  0  0  0  0  0  0  0  0
   -4.4401   -6.4020    0.9122 H   0  0  0  0  0  0  0  0  0  0  0  0
   -6.8230   -5.8797    0.4419 H   0  0  0  0  0  0  0  0  0  0  0  0
    4.6382    1.0281    0.1570 H   0  0  0  0  0  0  0  0  0  0  0  0
    5.0529    0.2397    1.7145 H   0  0  0  0  0  0  0  0  0  0  0  0
    6.9957   -1.7608    1.1948 H   0  0  0  0  0  0  0  0  0  0  0  0
    6.5121    2.0175   -0.8361 H   0  0  0  0  0  0  0  0  0  0  0  0
    9.3851   -1.7915    0.5551 H   0  0  0  0  0  0  0  0  0  0  0  0
    8.8919    1.9744   -1.4757 H   0  0  0  0  0  0  0  0  0  0  0  0
  1  2  1  0
  2  3  1  0
  1  4  1  0
  5  1  1  0
  4  6  2  0
  4  7  1  0
  8  5  1  0
  8  9  1  0
  9 10  2  0
  9 11  1  0
  3 12  1  0
 12 13  2  0
 14 12  1  0
 13 15  1  0
 16 14  2  0
 14 17  1  0
 15 18  1  0
 15 16  1  0
 17 19  2  0
 20 17  1  0
 18 21  2  0
 22 18  1  0
 19 23  1  0
 24 20  2  0
 21 25  1  0
 26 22  2  0
 23 27  2  0
 27 24  1  0
 25 28  2  0
 28 26  1  0
 27 29  1  0
 29 30  1  0
 30 31  1  0
 31 32  2  0
 33 31  1  0
 32 34  1  0
 35 33  2  0
 34 36  2  0
 36 35  1  0
 36 37  1  0
  1 38  1  6
  2 39  1  0
  2 40  1  0
  3 41  1  0
  3 42  1  0
  5 43  1  0
  5 44  1  0
  8 45  1  0
  8 46  1  0
 13 47  1  0
 19 48  1  0
 20 49  1  0
 21 50  1  0
 22 51  1  0
 23 52  1  0
 24 53  1  0
 25 54  1  0
 26 55  1  0
 28 56  1  0
 30 57  1  0
 30 58  1  0
 32 59  1  0
 33 60  1  0
 34 61  1  0
 35 62  1  0
M  CHG  3   2   1   7  -1  11  -1
M  END
>  <SMILES_raw>  (71) 
O=C(O)CC[C@@H](C(O)=O)NCC1=CN(C2=CC=CC=C2)N=C1C3=CC=C(OCC4=CC=C(Cl)C=C4)C=C3

>  <Protonation_Method>  (71) 
MolScrub

>  <Target_pH>  (71) 
7.4

$$$$
(R)-2-(((3-(4-((4-chlorobenzyl)oxy)phenyl)-1-phenyl-1H-pyrazol-4-yl)methyl)amino)-2-phenylacetic acid
     RDKit          3D

 64 68  0  0  0  0  0  0  0  0999 V2000
   -3.4728    2.1836   -1.5730 C   0  0  1  0  0  0  0  0  0  0  0  0
   -2.7782    0.8300   -1.3426 N   0  0  0  0  0  0  0  0  0  0  0  0
   -2.7125    0.3716    0.0607 C   0  0  0  0  0  0  0  0  0  0  0  0
   -5.0157    1.9342   -1.6799 C   0  0  0  0  0  0  0  0  0  0  0  0
   -2.9617    3.2432   -0.6239 C   0  0  0  0  0  0  0  0  0  0  0  0
   -5.2410    0.6739   -1.7377 O   0  0  0  0  0  0  0  0  0  0  0  0
   -5.7921    2.9131   -1.7124 O   0  0  0  0  0  0  0  0  0  0  0  0
   -3.7060    3.6904    0.4777 C   0  0  0  0  0  0  0  0  0  0  0  0
   -1.6602    3.7516   -0.7991 C   0  0  0  0  0  0  0  0  0  0  0  0
   -3.1694    4.6187    1.3733 C   0  0  0  0  0  0  0  0  0  0  0  0
   -1.1234    4.6743    0.1005 C   0  0  0  0  0  0  0  0  0  0  0  0
   -1.8789    5.1077    1.1871 C   0  0  0  0  0  0  0  0  0  0  0  0
   -2.3610   -1.0686    0.1134 C   0  0  0  0  0  0  0  0  0  0  0  0
   -3.2372   -2.1329    0.0181 C   0  0  0  0  0  0  0  0  0  0  0  0
   -1.0790   -1.6735    0.2046 C   0  0  0  0  0  0  0  0  0  0  0  0
   -2.4929   -3.2893    0.0604 N   0  0  0  0  0  0  0  0  0  0  0  0
   -1.1683   -3.0067    0.1437 N   0  0  0  0  0  0  0  0  0  0  0  0
    0.2253   -1.0232    0.2801 C   0  0  0  0  0  0  0  0  0  0  0  0
   -2.9555   -4.6331    0.0051 C   0  0  0  0  0  0  0  0  0  0  0  0
    1.2187   -1.3488   -0.6526 C   0  0  0  0  0  0  0  0  0  0  0  0
    0.5042   -0.0731    1.2669 C   0  0  0  0  0  0  0  0  0  0  0  0
   -4.3221   -4.9287   -0.0954 C   0  0  0  0  0  0  0  0  0  0  0  0
   -2.0255   -5.6841    0.0553 C   0  0  0  0  0  0  0  0  0  0  0  0
    2.4687   -0.7209   -0.6145 C   0  0  0  0  0  0  0  0  0  0  0  0
    1.7523    0.5551    1.2999 C   0  0  0  0  0  0  0  0  0  0  0  0
   -4.7463   -6.2600   -0.1530 C   0  0  0  0  0  0  0  0  0  0  0  0
   -2.4576   -7.0106   -0.0014 C   0  0  0  0  0  0  0  0  0  0  0  0
    2.7402    0.2322    0.3660 C   0  0  0  0  0  0  0  0  0  0  0  0
   -3.8165   -7.2975   -0.1068 C   0  0  0  0  0  0  0  0  0  0  0  0
    3.9141    0.9143    0.5195 O   0  0  0  0  0  0  0  0  0  0  0  0
    5.0329    0.4565   -0.2379 C   0  0  0  0  0  0  0  0  0  0  0  0
    6.2561    1.1978    0.2450 C   0  0  0  0  0  0  0  0  0  0  0  0
    6.7077    2.3486   -0.4178 C   0  0  0  0  0  0  0  0  0  0  0  0
    6.9368    0.7610    1.3918 C   0  0  0  0  0  0  0  0  0  0  0  0
    7.8332    3.0362    0.0439 C   0  0  0  0  0  0  0  0  0  0  0  0
    8.0599    1.4499    1.8557 C   0  0  0  0  0  0  0  0  0  0  0  0
    8.5049    2.5832    1.1781 C   0  0  0  0  0  0  0  0  0  0  0  0
    9.8895    3.4318    1.7481 Cl  0  0  0  0  0  0  0  0  0  0  0  0
   -3.1769    2.4649   -2.5930 H   0  0  0  0  0  0  0  0  0  0  0  0
   -1.9072    0.7334   -1.8582 H   0  0  0  0  0  0  0  0  0  0  0  0
   -3.4997    0.2089   -1.7759 H   0  0  0  0  0  0  0  0  0  0  0  0
   -3.6899    0.5395    0.5269 H   0  0  0  0  0  0  0  0  0  0  0  0
   -1.9722    0.9877    0.5748 H   0  0  0  0  0  0  0  0  0  0  0  0
   -4.7272    3.3451    0.6437 H   0  0  0  0  0  0  0  0  0  0  0  0
   -1.0524    3.4392   -1.6457 H   0  0  0  0  0  0  0  0  0  0  0  0
   -3.7743    4.9742    2.2063 H   0  0  0  0  0  0  0  0  0  0  0  0
   -0.1206    5.0655   -0.0528 H   0  0  0  0  0  0  0  0  0  0  0  0
   -1.4686    5.8368    1.8813 H   0  0  0  0  0  0  0  0  0  0  0  0
   -4.3138   -2.1422   -0.0875 H   0  0  0  0  0  0  0  0  0  0  0  0
    1.0252   -2.1043   -1.4130 H   0  0  0  0  0  0  0  0  0  0  0  0
   -0.2270    0.1731    2.0328 H   0  0  0  0  0  0  0  0  0  0  0  0
   -5.0844   -4.1557   -0.1344 H   0  0  0  0  0  0  0  0  0  0  0  0
   -0.9582   -5.4857    0.1389 H   0  0  0  0  0  0  0  0  0  0  0  0
    3.2035   -1.0033   -1.3615 H   0  0  0  0  0  0  0  0  0  0  0  0
    1.9678    1.2899    2.0731 H   0  0  0  0  0  0  0  0  0  0  0  0
   -5.8076   -6.4878   -0.2379 H   0  0  0  0  0  0  0  0  0  0  0  0
   -1.7315   -7.8194    0.0368 H   0  0  0  0  0  0  0  0  0  0  0  0
   -4.1511   -8.3308   -0.1510 H   0  0  0  0  0  0  0  0  0  0  0  0
    5.1925   -0.6213   -0.0980 H   0  0  0  0  0  0  0  0  0  0  0  0
    4.8767    0.6568   -1.3053 H   0  0  0  0  0  0  0  0  0  0  0  0
    6.1831    2.7202   -1.2953 H   0  0  0  0  0  0  0  0  0  0  0  0
    6.5902   -0.1163    1.9343 H   0  0  0  0  0  0  0  0  0  0  0  0
    8.1758    3.9243   -0.4810 H   0  0  0  0  0  0  0  0  0  0  0  0
    8.5769    1.0996    2.7457 H   0  0  0  0  0  0  0  0  0  0  0  0
  1  2  1  0
  2  3  1  0
  1  4  1  0
  1  5  1  0
  4  6  2  0
  4  7  1  0
  5  8  2  0
  9  5  1  0
  8 10  1  0
 11  9  2  0
 10 12  2  0
 12 11  1  0
  3 13  1  0
 13 14  2  0
 15 13  1  0
 14 16  1  0
 17 15  2  0
 15 18  1  0
 16 19  1  0
 16 17  1  0
 18 20  2  0
 21 18  1  0
 19 22  2  0
 23 19  1  0
 20 24  1  0
 25 21  2  0
 22 26  1  0
 27 23  2  0
 24 28  2  0
 28 25  1  0
 26 29  2  0
 29 27  1  0
 28 30  1  0
 30 31  1  0
 31 32  1  0
 32 33  2  0
 34 32  1  0
 33 35  1  0
 36 34  2  0
 35 37  2  0
 37 36  1  0
 37 38  1  0
  1 39  1  6
  2 40  1  0
  2 41  1  0
  3 42  1  0
  3 43  1  0
  8 44  1  0
  9 45  1  0
 10 46  1  0
 11 47  1  0
 12 48  1  0
 14 49  1  0
 20 50  1  0
 21 51  1  0
 22 52  1  0
 23 53  1  0
 24 54  1  0
 25 55  1  0
 26 56  1  0
 27 57  1  0
 29 58  1  0
 31 59  1  0
 31 60  1  0
 33 61  1  0
 34 62  1  0
 35 63  1  0
 36 64  1  0
M  CHG  2   2   1   7  -1
M  END
>  <SMILES_raw>  (72) 
O=C(O)[C@H](NCC1=CN(C2=CC=CC=C2)N=C1C3=CC=C(OCC4=CC=C(Cl)C=C4)C=C3)C5=CC=CC=C5

>  <Protonation_Method>  (72) 
MolScrub

>  <Target_pH>  (72) 
7.4

$$$$
(R)-2-(((3-(4-((3-chlorobenzyl)oxy)phenyl)-1-phenyl-1H-pyrazol-4-yl)methyl)amino)-2-phenylacetic acid
     RDKit          3D

 64 68  0  0  0  0  0  0  0  0999 V2000
   -3.3460    1.7004   -0.0172 C   0  0  1  0  0  0  0  0  0  0  0  0
   -1.9064    1.5920   -0.5291 N   0  0  0  0  0  0  0  0  0  0  0  0
   -1.6532    0.5678   -1.5499 C   0  0  0  0  0  0  0  0  0  0  0  0
   -3.4358    1.0008    1.3799 C   0  0  0  0  0  0  0  0  0  0  0  0
   -3.7480    3.1601    0.0266 C   0  0  0  0  0  0  0  0  0  0  0  0
   -4.5590    0.5940    1.7539 O   0  0  0  0  0  0  0  0  0  0  0  0
   -2.2627    0.8770    1.8761 O   0  0  0  0  0  0  0  0  0  0  0  0
   -4.5332    3.7005   -1.0076 C   0  0  0  0  0  0  0  0  0  0  0  0
   -3.2895    4.0178    1.0407 C   0  0  0  0  0  0  0  0  0  0  0  0
   -4.8639    5.0568   -1.0157 C   0  0  0  0  0  0  0  0  0  0  0  0
   -3.6240    5.3725    1.0308 C   0  0  0  0  0  0  0  0  0  0  0  0
   -4.4093    5.8918    0.0027 C   0  0  0  0  0  0  0  0  0  0  0  0
   -1.7500   -0.8319   -1.0743 C   0  0  0  0  0  0  0  0  0  0  0  0
   -2.8725   -1.6269   -0.9478 C   0  0  0  0  0  0  0  0  0  0  0  0
   -0.6885   -1.6666   -0.6354 C   0  0  0  0  0  0  0  0  0  0  0  0
   -2.4600   -2.8557   -0.4702 N   0  0  0  0  0  0  0  0  0  0  0  0
   -1.1082   -2.9065   -0.3770 N   0  0  0  0  0  0  0  0  0  0  0  0
    0.7065   -1.2973   -0.4742 C   0  0  0  0  0  0  0  0  0  0  0  0
   -3.2614   -3.9855   -0.1454 C   0  0  0  0  0  0  0  0  0  0  0  0
    1.6361   -1.5878   -1.4735 C   0  0  0  0  0  0  0  0  0  0  0  0
    1.1128   -0.6132    0.6773 C   0  0  0  0  0  0  0  0  0  0  0  0
   -4.6595   -3.8975   -0.1123 C   0  0  0  0  0  0  0  0  0  0  0  0
   -2.6409   -5.2081    0.1524 C   0  0  0  0  0  0  0  0  0  0  0  0
    2.9630   -1.1787   -1.3236 C   0  0  0  0  0  0  0  0  0  0  0  0
    2.4453   -0.2130    0.8262 C   0  0  0  0  0  0  0  0  0  0  0  0
   -5.4235   -5.0254    0.2027 C   0  0  0  0  0  0  0  0  0  0  0  0
   -3.4108   -6.3324    0.4582 C   0  0  0  0  0  0  0  0  0  0  0  0
    3.3748   -0.4913   -0.1771 C   0  0  0  0  0  0  0  0  0  0  0  0
   -4.8005   -6.2405    0.4809 C   0  0  0  0  0  0  0  0  0  0  0  0
    4.6977   -0.1477   -0.1675 O   0  0  0  0  0  0  0  0  0  0  0  0
    5.2109    0.4342    1.0300 C   0  0  0  0  0  0  0  0  0  0  0  0
    6.6786    0.7274    0.8259 C   0  0  0  0  0  0  0  0  0  0  0  0
    7.6501    0.1548    1.6599 C   0  0  0  0  0  0  0  0  0  0  0  0
    7.0898    1.5934   -0.1995 C   0  0  0  0  0  0  0  0  0  0  0  0
    9.0050    0.4405    1.4722 C   0  0  0  0  0  0  0  0  0  0  0  0
    8.4436    1.8748   -0.3819 C   0  0  0  0  0  0  0  0  0  0  0  0
    9.4032    1.3025    0.4504 C   0  0  0  0  0  0  0  0  0  0  0  0
    8.9307    2.9385   -1.6440 Cl  0  0  0  0  0  0  0  0  0  0  0  0
   -3.9861    1.1573   -0.7227 H   0  0  0  0  0  0  0  0  0  0  0  0
   -1.4357    1.3027    0.3630 H   0  0  0  0  0  0  0  0  0  0  0  0
   -1.5401    2.5174   -0.7569 H   0  0  0  0  0  0  0  0  0  0  0  0
   -0.6488    0.7731   -1.9373 H   0  0  0  0  0  0  0  0  0  0  0  0
   -2.3513    0.7527   -2.3755 H   0  0  0  0  0  0  0  0  0  0  0  0
   -4.9086    3.0676   -1.8100 H   0  0  0  0  0  0  0  0  0  0  0  0
   -2.6816    3.6367    1.8630 H   0  0  0  0  0  0  0  0  0  0  0  0
   -5.4858    5.4625   -1.8116 H   0  0  0  0  0  0  0  0  0  0  0  0
   -3.2804    6.0223    1.8325 H   0  0  0  0  0  0  0  0  0  0  0  0
   -4.6775    6.9450    0.0043 H   0  0  0  0  0  0  0  0  0  0  0  0
   -3.9147   -1.4213   -1.1409 H   0  0  0  0  0  0  0  0  0  0  0  0
    1.3385   -2.1373   -2.3625 H   0  0  0  0  0  0  0  0  0  0  0  0
    0.3969   -0.4076    1.4747 H   0  0  0  0  0  0  0  0  0  0  0  0
   -5.1848   -2.9649   -0.2909 H   0  0  0  0  0  0  0  0  0  0  0  0
   -1.5568   -5.3020    0.1479 H   0  0  0  0  0  0  0  0  0  0  0  0
    3.6876   -1.4089   -2.1012 H   0  0  0  0  0  0  0  0  0  0  0  0
    2.7188    0.3057    1.7393 H   0  0  0  0  0  0  0  0  0  0  0  0
   -6.5060   -4.9485    0.2485 H   0  0  0  0  0  0  0  0  0  0  0  0
   -2.9222   -7.2766    0.6820 H   0  0  0  0  0  0  0  0  0  0  0  0
   -5.3992   -7.1133    0.7297 H   0  0  0  0  0  0  0  0  0  0  0  0
    5.0785   -0.2606    1.8676 H   0  0  0  0  0  0  0  0  0  0  0  0
    4.7015    1.3798    1.2535 H   0  0  0  0  0  0  0  0  0  0  0  0
    7.3590   -0.5231    2.4605 H   0  0  0  0  0  0  0  0  0  0  0  0
    6.3489    2.0403   -0.8590 H   0  0  0  0  0  0  0  0  0  0  0  0
    9.7510   -0.0110    2.1223 H   0  0  0  0  0  0  0  0  0  0  0  0
   10.4580    1.5206    0.3074 H   0  0  0  0  0  0  0  0  0  0  0  0
  1  2  1  0
  2  3  1  0
  1  4  1  0
  1  5  1  0
  4  6  2  0
  4  7  1  0
  5  8  2  0
  9  5  1  0
  8 10  1  0
 11  9  2  0
 10 12  2  0
 12 11  1  0
  3 13  1  0
 13 14  2  0
 15 13  1  0
 14 16  1  0
 17 15  2  0
 15 18  1  0
 16 19  1  0
 16 17  1  0
 18 20  2  0
 21 18  1  0
 19 22  2  0
 23 19  1  0
 20 24  1  0
 25 21  2  0
 22 26  1  0
 27 23  2  0
 24 28  2  0
 28 25  1  0
 26 29  2  0
 29 27  1  0
 28 30  1  0
 30 31  1  0
 31 32  1  0
 32 33  2  0
 34 32  1  0
 33 35  1  0
 36 34  2  0
 35 37  2  0
 37 36  1  0
 36 38  1  0
  1 39  1  6
  2 40  1  0
  2 41  1  0
  3 42  1  0
  3 43  1  0
  8 44  1  0
  9 45  1  0
 10 46  1  0
 11 47  1  0
 12 48  1  0
 14 49  1  0
 20 50  1  0
 21 51  1  0
 22 52  1  0
 23 53  1  0
 24 54  1  0
 25 55  1  0
 26 56  1  0
 27 57  1  0
 29 58  1  0
 31 59  1  0
 31 60  1  0
 33 61  1  0
 34 62  1  0
 35 63  1  0
 37 64  1  0
M  CHG  2   2   1   7  -1
M  END
>  <SMILES_raw>  (73) 
O=C(O)[C@H](NCC1=CN(C2=CC=CC=C2)N=C1C3=CC=C(OCC4=CC=CC(Cl)=C4)C=C3)C5=CC=CC=C5

>  <Protonation_Method>  (73) 
MolScrub

>  <Target_pH>  (73) 
7.4

$$$$
N-((3(4((3-chlorobenzyl)oxy)phenyl)-1-phenyl-1H-pyrazol-4-yl)methyl)-L-glycin
     RDKit          3D

 54 57  0  0  0  0  0  0  0  0999 V2000
   -3.2268    4.1335    0.6027 C   0  0  0  0  0  0  0  0  0  0  0  0
   -3.2522    2.6440    0.2967 N   0  0  0  0  0  0  0  0  0  0  0  0
   -2.3209    1.8333    1.1063 C   0  0  0  0  0  0  0  0  0  0  0  0
   -4.2401    4.4443    1.7378 C   0  0  0  0  0  0  0  0  0  0  0  0
   -4.1557    5.5633    2.2902 O   0  0  0  0  0  0  0  0  0  0  0  0
   -4.9921    3.4303    1.9320 O   0  0  0  0  0  0  0  0  0  0  0  0
   -2.4919    0.3882    0.8213 C   0  0  0  0  0  0  0  0  0  0  0  0
   -3.6386   -0.3733    0.9499 C   0  0  0  0  0  0  0  0  0  0  0  0
   -1.5108   -0.5348    0.3788 C   0  0  0  0  0  0  0  0  0  0  0  0
   -3.3215   -1.6667    0.5947 N   0  0  0  0  0  0  0  0  0  0  0  0
   -2.0212   -1.7586    0.2242 N   0  0  0  0  0  0  0  0  0  0  0  0
   -0.1066   -0.2778    0.1070 C   0  0  0  0  0  0  0  0  0  0  0  0
   -4.1702   -2.8088    0.5780 C   0  0  0  0  0  0  0  0  0  0  0  0
    0.2947    0.2203   -1.1401 C   0  0  0  0  0  0  0  0  0  0  0  0
    0.8483   -0.5161    1.0986 C   0  0  0  0  0  0  0  0  0  0  0  0
   -5.5214   -2.7185    0.9407 C   0  0  0  0  0  0  0  0  0  0  0  0
   -3.6440   -4.0519    0.1926 C   0  0  0  0  0  0  0  0  0  0  0  0
    1.6470    0.4824   -1.3920 C   0  0  0  0  0  0  0  0  0  0  0  0
    2.1950   -0.2464    0.8457 C   0  0  0  0  0  0  0  0  0  0  0  0
   -6.3294   -3.8602    0.9156 C   0  0  0  0  0  0  0  0  0  0  0  0
   -4.4567   -5.1870    0.1712 C   0  0  0  0  0  0  0  0  0  0  0  0
    2.6014    0.2458   -0.3993 C   0  0  0  0  0  0  0  0  0  0  0  0
   -5.7988   -5.0911    0.5330 C   0  0  0  0  0  0  0  0  0  0  0  0
    3.9450    0.4673   -0.5135 O   0  0  0  0  0  0  0  0  0  0  0  0
    4.4641    0.6077   -1.8330 C   0  0  0  0  0  0  0  0  0  0  0  0
    5.9734    0.6397   -1.7606 C   0  0  0  0  0  0  0  0  0  0  0  0
    6.6302    1.5417   -0.9075 C   0  0  0  0  0  0  0  0  0  0  0  0
    6.7447   -0.2085   -2.5695 C   0  0  0  0  0  0  0  0  0  0  0  0
    8.0265    1.5842   -0.8518 C   0  0  0  0  0  0  0  0  0  0  0  0
    8.1394   -0.1615   -2.5093 C   0  0  0  0  0  0  0  0  0  0  0  0
    8.7827    0.7300   -1.6531 C   0  0  0  0  0  0  0  0  0  0  0  0
    9.0716   -1.2113   -3.5060 Cl  0  0  0  0  0  0  0  0  0  0  0  0
   -2.2003    4.4196    0.8535 H   0  0  0  0  0  0  0  0  0  0  0  0
   -3.5457    4.6393   -0.3163 H   0  0  0  0  0  0  0  0  0  0  0  0
   -4.2044    2.4145    0.6739 H   0  0  0  0  0  0  0  0  0  0  0  0
   -3.2608    2.4300   -0.7011 H   0  0  0  0  0  0  0  0  0  0  0  0
   -1.3137    2.1785    0.8690 H   0  0  0  0  0  0  0  0  0  0  0  0
   -2.5240    2.0395    2.1591 H   0  0  0  0  0  0  0  0  0  0  0  0
   -4.6300   -0.0996    1.2818 H   0  0  0  0  0  0  0  0  0  0  0  0
   -0.4360    0.3883   -1.9290 H   0  0  0  0  0  0  0  0  0  0  0  0
    0.5542   -0.9272    2.0600 H   0  0  0  0  0  0  0  0  0  0  0  0
   -5.9823   -1.7844    1.2440 H   0  0  0  0  0  0  0  0  0  0  0  0
   -2.5997   -4.1524   -0.0980 H   0  0  0  0  0  0  0  0  0  0  0  0
    1.9218    0.8687   -2.3698 H   0  0  0  0  0  0  0  0  0  0  0  0
    2.9372   -0.4429    1.6178 H   0  0  0  0  0  0  0  0  0  0  0  0
   -7.3789   -3.7882    1.1936 H   0  0  0  0  0  0  0  0  0  0  0  0
   -4.0385   -6.1462   -0.1194 H   0  0  0  0  0  0  0  0  0  0  0  0
   -6.4305   -5.9758    0.5180 H   0  0  0  0  0  0  0  0  0  0  0  0
    4.1396   -0.2387   -2.4523 H   0  0  0  0  0  0  0  0  0  0  0  0
    4.1207    1.5478   -2.2890 H   0  0  0  0  0  0  0  0  0  0  0  0
    6.0517    2.2110   -0.2728 H   0  0  0  0  0  0  0  0  0  0  0  0
    6.2622   -0.9115   -3.2447 H   0  0  0  0  0  0  0  0  0  0  0  0
    8.5233    2.2823   -0.1809 H   0  0  0  0  0  0  0  0  0  0  0  0
    9.8689    0.7644   -1.6058 H   0  0  0  0  0  0  0  0  0  0  0  0
  1  2  1  0
  2  3  1  0
  1  4  1  0
  4  5  2  0
  4  6  1  0
  3  7  1  0
  7  8  2  0
  9  7  1  0
  8 10  1  0
 11  9  2  0
  9 12  1  0
 10 13  1  0
 10 11  1  0
 12 14  2  0
 15 12  1  0
 13 16  2  0
 17 13  1  0
 14 18  1  0
 19 15  2  0
 16 20  1  0
 21 17  2  0
 18 22  2  0
 22 19  1  0
 20 23  2  0
 23 21  1  0
 22 24  1  0
 24 25  1  0
 25 26  1  0
 26 27  2  0
 28 26  1  0
 27 29  1  0
 30 28  2  0
 29 31  2  0
 31 30  1  0
 30 32  1  0
  1 33  1  0
  1 34  1  0
  2 35  1  0
  2 36  1  0
  3 37  1  0
  3 38  1  0
  8 39  1  0
 14 40  1  0
 15 41  1  0
 16 42  1  0
 17 43  1  0
 18 44  1  0
 19 45  1  0
 20 46  1  0
 21 47  1  0
 23 48  1  0
 25 49  1  0
 25 50  1  0
 27 51  1  0
 28 52  1  0
 29 53  1  0
 31 54  1  0
M  CHG  2   2   1   6  -1
M  END
>  <SMILES_raw>  (74) 
O=C(O)CNCC1=CN(C2=CC=CC=C2)N=C1C3=CC=C(OCC4=CC=CC(Cl)=C4)C=C3

>  <Protonation_Method>  (74) 
MolScrub

>  <Target_pH>  (74) 
7.4

$$$$
N-((3-(4-((3-chlorobenzyl)oxy)phenyl)-1-phenyl-1H-pyrazol-4-yl)methyl)-L-tryptophan
     RDKit          3D

 71 76  0  0  0  0  0  0  0  0999 V2000
   -2.5470    1.3493   -1.0768 C   0  0  2  0  0  0  0  0  0  0  0  0
   -1.1031    1.7086   -0.6659 N   0  0  0  0  0  0  0  0  0  0  0  0
   -0.6051    1.2286    0.6254 C   0  0  0  0  0  0  0  0  0  0  0  0
   -2.5882    1.2213   -2.6265 C   0  0  0  0  0  0  0  0  0  0  0  0
   -3.5197    2.3787   -0.5059 C   0  0  0  0  0  0  0  0  0  0  0  0
   -3.7056    1.1557   -3.1847 O   0  0  0  0  0  0  0  0  0  0  0  0
   -1.3946    1.1901   -3.0752 O   0  0  0  0  0  0  0  0  0  0  0  0
   -4.5389    1.7628    0.4087 C   0  0  0  0  0  0  0  0  0  0  0  0
   -4.4105    1.5061    1.7625 C   0  0  0  0  0  0  0  0  0  0  0  0
   -5.8536    1.3355    0.0302 C   0  0  0  0  0  0  0  0  0  0  0  0
   -5.5847    0.9582    2.2091 N   0  0  0  0  0  0  0  0  0  0  0  0
   -6.4860    0.8550    1.1749 C   0  0  0  0  0  0  0  0  0  0  0  0
   -6.5665    1.3185   -1.1856 C   0  0  0  0  0  0  0  0  0  0  0  0
   -7.7988    0.3699    1.1682 C   0  0  0  0  0  0  0  0  0  0  0  0
   -7.8812    0.8392   -1.2110 C   0  0  0  0  0  0  0  0  0  0  0  0
   -8.4879    0.3750   -0.0486 C   0  0  0  0  0  0  0  0  0  0  0  0
   -0.3465   -0.2284    0.6604 C   0  0  0  0  0  0  0  0  0  0  0  0
   -1.1659   -1.2319    1.1422 C   0  0  0  0  0  0  0  0  0  0  0  0
    0.7926   -0.9169    0.1617 C   0  0  0  0  0  0  0  0  0  0  0  0
   -0.5404   -2.4363    0.8832 N   0  0  0  0  0  0  0  0  0  0  0  0
    0.6673   -2.2397    0.3047 N   0  0  0  0  0  0  0  0  0  0  0  0
    1.9776   -0.3464   -0.4610 C   0  0  0  0  0  0  0  0  0  0  0  0
   -1.0140   -3.7509    1.1561 C   0  0  0  0  0  0  0  0  0  0  0  0
    2.2610   -0.6098   -1.8039 C   0  0  0  0  0  0  0  0  0  0  0  0
    2.8420    0.4686    0.2794 C   0  0  0  0  0  0  0  0  0  0  0  0
   -2.2425   -3.9715    1.7996 C   0  0  0  0  0  0  0  0  0  0  0  0
   -0.2337   -4.8522    0.7661 C   0  0  0  0  0  0  0  0  0  0  0  0
    3.3948   -0.0535   -2.3971 C   0  0  0  0  0  0  0  0  0  0  0  0
    3.9749    1.0279   -0.3212 C   0  0  0  0  0  0  0  0  0  0  0  0
   -2.6743   -5.2771    2.0528 C   0  0  0  0  0  0  0  0  0  0  0  0
   -0.6734   -6.1497    1.0213 C   0  0  0  0  0  0  0  0  0  0  0  0
    4.2516    0.7754   -1.6648 C   0  0  0  0  0  0  0  0  0  0  0  0
   -1.8902   -6.3614    1.6676 C   0  0  0  0  0  0  0  0  0  0  0  0
    5.3340    1.2368   -2.3584 O   0  0  0  0  0  0  0  0  0  0  0  0
    6.0522    2.3487   -1.8217 C   0  0  0  0  0  0  0  0  0  0  0  0
    7.1406    1.9523   -0.8494 C   0  0  0  0  0  0  0  0  0  0  0  0
    7.5221    2.8399    0.1696 C   0  0  0  0  0  0  0  0  0  0  0  0
    7.8230    0.7324   -0.9729 C   0  0  0  0  0  0  0  0  0  0  0  0
    8.5413    2.5042    1.0625 C   0  0  0  0  0  0  0  0  0  0  0  0
    8.8392    0.4004   -0.0760 C   0  0  0  0  0  0  0  0  0  0  0  0
    9.1991    1.2794    0.9436 C   0  0  0  0  0  0  0  0  0  0  0  0
    9.6454   -1.1118   -0.2253 Cl  0  0  0  0  0  0  0  0  0  0  0  0
   -2.7280    0.3394   -0.6864 H   0  0  0  0  0  0  0  0  0  0  0  0
   -0.9581    2.7069   -0.8364 H   0  0  0  0  0  0  0  0  0  0  0  0
   -0.5837    1.2826   -1.4729 H   0  0  0  0  0  0  0  0  0  0  0  0
   -1.3271    1.5257    1.3899 H   0  0  0  0  0  0  0  0  0  0  0  0
    0.3151    1.7893    0.8229 H   0  0  0  0  0  0  0  0  0  0  0  0
   -4.0297    2.9344   -1.3022 H   0  0  0  0  0  0  0  0  0  0  0  0
   -2.9789    3.1397    0.0761 H   0  0  0  0  0  0  0  0  0  0  0  0
   -3.5974    1.6684    2.4571 H   0  0  0  0  0  0  0  0  0  0  0  0
   -5.7807    0.6748    3.1613 H   0  0  0  0  0  0  0  0  0  0  0  0
   -6.1043    1.6650   -2.1064 H   0  0  0  0  0  0  0  0  0  0  0  0
   -8.2729   -0.0012    2.0694 H   0  0  0  0  0  0  0  0  0  0  0  0
   -8.4252    0.8259   -2.1535 H   0  0  0  0  0  0  0  0  0  0  0  0
   -9.5116    0.0065   -0.0889 H   0  0  0  0  0  0  0  0  0  0  0  0
   -2.1450   -1.1872    1.5993 H   0  0  0  0  0  0  0  0  0  0  0  0
    1.6067   -1.2557   -2.3922 H   0  0  0  0  0  0  0  0  0  0  0  0
    2.6631    0.6497    1.3357 H   0  0  0  0  0  0  0  0  0  0  0  0
   -2.8888   -3.1599    2.1181 H   0  0  0  0  0  0  0  0  0  0  0  0
    0.7200   -4.7117    0.2526 H   0  0  0  0  0  0  0  0  0  0  0  0
    3.6147   -0.2723   -3.4402 H   0  0  0  0  0  0  0  0  0  0  0  0
    4.6373    1.6250    0.2969 H   0  0  0  0  0  0  0  0  0  0  0  0
   -3.6276   -5.4498    2.5498 H   0  0  0  0  0  0  0  0  0  0  0  0
   -0.0679   -6.9976    0.7080 H   0  0  0  0  0  0  0  0  0  0  0  0
   -2.2312   -7.3740    1.8631 H   0  0  0  0  0  0  0  0  0  0  0  0
    6.5342    2.8502   -2.6691 H   0  0  0  0  0  0  0  0  0  0  0  0
    5.3640    3.0894   -1.3843 H   0  0  0  0  0  0  0  0  0  0  0  0
    7.0235    3.8026    0.2738 H   0  0  0  0  0  0  0  0  0  0  0  0
    7.5535    0.0359   -1.7641 H   0  0  0  0  0  0  0  0  0  0  0  0
    8.8300    3.1970    1.8469 H   0  0  0  0  0  0  0  0  0  0  0  0
    9.9896    1.0197    1.6434 H   0  0  0  0  0  0  0  0  0  0  0  0
  1  2  1  0
  2  3  1  0
  1  4  1  0
  1  5  1  0
  4  6  2  0
  4  7  1  0
  5  8  1  0
  8  9  2  0
 10  8  1  0
  9 11  1  0
 12 10  2  0
 10 13  1  0
 11 12  1  0
 14 12  1  0
 13 15  2  0
 16 14  2  0
 15 16  1  0
  3 17  1  0
 17 18  2  0
 19 17  1  0
 18 20  1  0
 21 19  2  0
 19 22  1  0
 20 23  1  0
 20 21  1  0
 22 24  2  0
 25 22  1  0
 23 26  2  0
 27 23  1  0
 24 28  1  0
 29 25  2  0
 26 30  1  0
 31 27  2  0
 28 32  2  0
 32 29  1  0
 30 33  2  0
 33 31  1  0
 32 34  1  0
 34 35  1  0
 35 36  1  0
 36 37  2  0
 38 36  1  0
 37 39  1  0
 40 38  2  0
 39 41  2  0
 41 40  1  0
 40 42  1  0
  1 43  1  1
  2 44  1  0
  2 45  1  0
  3 46  1  0
  3 47  1  0
  5 48  1  0
  5 49  1  0
  9 50  1  0
 11 51  1  0
 13 52  1  0
 14 53  1  0
 15 54  1  0
 16 55  1  0
 18 56  1  0
 24 57  1  0
 25 58  1  0
 26 59  1  0
 27 60  1  0
 28 61  1  0
 29 62  1  0
 30 63  1  0
 31 64  1  0
 33 65  1  0
 35 66  1  0
 35 67  1  0
 37 68  1  0
 38 69  1  0
 39 70  1  0
 41 71  1  0
M  CHG  2   2   1   7  -1
M  END
>  <SMILES_raw>  (75) 
O=C(O)[C@H](CC1=CNC2=C1C=CC=C2)NCC3=CN(C4=CC=CC=C4)N=C3C5=CC=C(OCC6=CC=CC(Cl)=C6)C=C5

>  <Protonation_Method>  (75) 
MolScrub

>  <Target_pH>  (75) 
7.4

$$$$
N-((3-(4-((3-chlorobenzyl)oxy)phenyl)-1-phenyl-1H-pyrazol-4-yl)methyl)-L-alanin
     RDKit          3D

 57 60  0  0  0  0  0  0  0  0999 V2000
   -2.9449    3.9196   -0.4031 C   0  0  2  0  0  0  0  0  0  0  0  0
   -2.6704    2.5184    0.1514 N   0  0  0  0  0  0  0  0  0  0  0  0
   -2.3014    1.4749   -0.8341 C   0  0  0  0  0  0  0  0  0  0  0  0
   -4.3712    3.9444   -1.0372 C   0  0  0  0  0  0  0  0  0  0  0  0
   -1.8072    4.3842   -1.2903 C   0  0  0  0  0  0  0  0  0  0  0  0
   -5.0639    2.9859   -0.5572 O   0  0  0  0  0  0  0  0  0  0  0  0
   -4.6078    4.8034   -1.9112 O   0  0  0  0  0  0  0  0  0  0  0  0
   -2.4949    0.1217   -0.2583 C   0  0  0  0  0  0  0  0  0  0  0  0
   -3.6955   -0.4999    0.0275 C   0  0  0  0  0  0  0  0  0  0  0  0
   -1.5123   -0.8351    0.1010 C   0  0  0  0  0  0  0  0  0  0  0  0
   -3.4083   -1.7551    0.5163 N   0  0  0  0  0  0  0  0  0  0  0  0
   -2.0675   -1.9547    0.5723 N   0  0  0  0  0  0  0  0  0  0  0  0
   -0.0674   -0.7074    0.0006 C   0  0  0  0  0  0  0  0  0  0  0  0
   -4.3186   -2.7650    0.9343 C   0  0  0  0  0  0  0  0  0  0  0  0
    0.6369    0.1013    0.8996 C   0  0  0  0  0  0  0  0  0  0  0  0
    0.6238   -1.3817   -1.0084 C   0  0  0  0  0  0  0  0  0  0  0  0
   -3.8198   -3.9866    1.4128 C   0  0  0  0  0  0  0  0  0  0  0  0
   -5.7050   -2.5638    0.8774 C   0  0  0  0  0  0  0  0  0  0  0  0
    2.0248    0.2455    0.7820 C   0  0  0  0  0  0  0  0  0  0  0  0
    2.0073   -1.2311   -1.1245 C   0  0  0  0  0  0  0  0  0  0  0  0
   -4.6962   -4.9926    1.8257 C   0  0  0  0  0  0  0  0  0  0  0  0
   -6.5758   -3.5758    1.2929 C   0  0  0  0  0  0  0  0  0  0  0  0
    2.7147   -0.4188   -0.2336 C   0  0  0  0  0  0  0  0  0  0  0  0
   -6.0726   -4.7869    1.7652 C   0  0  0  0  0  0  0  0  0  0  0  0
    4.0605   -0.3624   -0.4647 O   0  0  0  0  0  0  0  0  0  0  0  0
    4.8518    0.3876    0.4537 C   0  0  0  0  0  0  0  0  0  0  0  0
    6.2910    0.3042    0.0085 C   0  0  0  0  0  0  0  0  0  0  0  0
    7.2109   -0.5023    0.6943 C   0  0  0  0  0  0  0  0  0  0  0  0
    6.7223    1.0194   -1.1196 C   0  0  0  0  0  0  0  0  0  0  0  0
    8.5399   -0.5801    0.2711 C   0  0  0  0  0  0  0  0  0  0  0  0
    8.0503    0.9370   -1.5374 C   0  0  0  0  0  0  0  0  0  0  0  0
    8.9615    0.1423   -0.8450 C   0  0  0  0  0  0  0  0  0  0  0  0
    8.5664    1.8247   -2.9180 Cl  0  0  0  0  0  0  0  0  0  0  0  0
   -2.9914    4.5572    0.4882 H   0  0  0  0  0  0  0  0  0  0  0  0
   -3.6534    2.2709    0.4111 H   0  0  0  0  0  0  0  0  0  0  0  0
   -2.1104    2.5151    1.0023 H   0  0  0  0  0  0  0  0  0  0  0  0
   -2.9297    1.5989   -1.7228 H   0  0  0  0  0  0  0  0  0  0  0  0
   -1.2593    1.6522   -1.1140 H   0  0  0  0  0  0  0  0  0  0  0  0
   -1.7978    3.8536   -2.2488 H   0  0  0  0  0  0  0  0  0  0  0  0
   -0.8361    4.2424   -0.8035 H   0  0  0  0  0  0  0  0  0  0  0  0
   -1.9129    5.4503   -1.5180 H   0  0  0  0  0  0  0  0  0  0  0  0
   -4.7111   -0.1492   -0.0986 H   0  0  0  0  0  0  0  0  0  0  0  0
    0.1178    0.6051    1.7114 H   0  0  0  0  0  0  0  0  0  0  0  0
    0.0942   -2.0318   -1.7021 H   0  0  0  0  0  0  0  0  0  0  0  0
   -2.7488   -4.1719    1.4694 H   0  0  0  0  0  0  0  0  0  0  0  0
   -6.1449   -1.6386    0.5165 H   0  0  0  0  0  0  0  0  0  0  0  0
    2.5350    0.8753    1.5036 H   0  0  0  0  0  0  0  0  0  0  0  0
    2.5411   -1.7596   -1.9117 H   0  0  0  0  0  0  0  0  0  0  0  0
   -4.3025   -5.9368    2.1935 H   0  0  0  0  0  0  0  0  0  0  0  0
   -7.6506   -3.4191    1.2437 H   0  0  0  0  0  0  0  0  0  0  0  0
   -6.7538   -5.5714    2.0853 H   0  0  0  0  0  0  0  0  0  0  0  0
    4.5465    1.4419    0.4604 H   0  0  0  0  0  0  0  0  0  0  0  0
    4.7499   -0.0203    1.4676 H   0  0  0  0  0  0  0  0  0  0  0  0
    6.8975   -1.0816    1.5608 H   0  0  0  0  0  0  0  0  0  0  0  0
    6.0176    1.6340   -1.6754 H   0  0  0  0  0  0  0  0  0  0  0  0
    9.2457   -1.2087    0.8091 H   0  0  0  0  0  0  0  0  0  0  0  0
    9.9958    0.0771   -1.1717 H   0  0  0  0  0  0  0  0  0  0  0  0
  1  2  1  0
  2  3  1  0
  1  4  1  0
  5  1  1  0
  4  6  2  0
  4  7  1  0
  3  8  1  0
  8  9  2  0
 10  8  1  0
  9 11  1  0
 12 10  2  0
 10 13  1  0
 11 14  1  0
 11 12  1  0
 13 15  2  0
 16 13  1  0
 14 17  2  0
 18 14  1  0
 15 19  1  0
 20 16  2  0
 17 21  1  0
 22 18  2  0
 19 23  2  0
 23 20  1  0
 21 24  2  0
 24 22  1  0
 23 25  1  0
 25 26  1  0
 26 27  1  0
 27 28  2  0
 29 27  1  0
 28 30  1  0
 31 29  2  0
 30 32  2  0
 32 31  1  0
 31 33  1  0
  1 34  1  1
  2 35  1  0
  2 36  1  0
  3 37  1  0
  3 38  1  0
  5 39  1  0
  5 40  1  0
  5 41  1  0
  9 42  1  0
 15 43  1  0
 16 44  1  0
 17 45  1  0
 18 46  1  0
 19 47  1  0
 20 48  1  0
 21 49  1  0
 22 50  1  0
 24 51  1  0
 26 52  1  0
 26 53  1  0
 28 54  1  0
 29 55  1  0
 30 56  1  0
 32 57  1  0
M  CHG  2   2   1   7  -1
M  END
>  <SMILES_raw>  (76) 
C[C@@H](C(O)=O)NCC1=CN(C2=CC=CC=C2)N=C1C3=CC=C(OCC4=CC=CC(Cl)=C4)C=C3

>  <Protonation_Method>  (76) 
MolScrub

>  <Target_pH>  (76) 
7.4

$$$$
N-((3-(4-(benzyloxy)phenyl)-1(4-nitrophenyl)-1H-pyrazol-4-yl)methyl)-L-alanin
     RDKit          3D

 59 62  0  0  0  0  0  0  0  0999 V2000
   -0.6158   -2.0255    2.8247 C   0  0  2  0  0  0  0  0  0  0  0  0
    0.0424   -0.9316    1.9794 N   0  0  0  0  0  0  0  0  0  0  0  0
    0.8979   -1.4001    0.8628 C   0  0  0  0  0  0  0  0  0  0  0  0
    0.4627   -2.7345    3.6998 C   0  0  0  0  0  0  0  0  0  0  0  0
   -1.4787   -2.9182    1.9550 C   0  0  0  0  0  0  0  0  0  0  0  0
    0.2551   -3.9209    4.0313 O   0  0  0  0  0  0  0  0  0  0  0  0
    1.4601   -1.9597    3.8709 O   0  0  0  0  0  0  0  0  0  0  0  0
    1.6624   -0.2685    0.2773 C   0  0  0  0  0  0  0  0  0  0  0  0
    2.9897    0.0525    0.4805 C   0  0  0  0  0  0  0  0  0  0  0  0
    1.1811    0.7600   -0.5766 C   0  0  0  0  0  0  0  0  0  0  0  0
    3.2523    1.2009   -0.2327 N   0  0  0  0  0  0  0  0  0  0  0  0
    2.1365    1.6491   -0.8585 N   0  0  0  0  0  0  0  0  0  0  0  0
   -0.1834    0.9326   -1.0526 C   0  0  0  0  0  0  0  0  0  0  0  0
    4.4858    1.9030   -0.3509 C   0  0  0  0  0  0  0  0  0  0  0  0
   -0.9258    2.0462   -0.6509 C   0  0  0  0  0  0  0  0  0  0  0  0
   -0.7870   -0.0469   -1.8471 C   0  0  0  0  0  0  0  0  0  0  0  0
    4.5467    3.0551   -1.1549 C   0  0  0  0  0  0  0  0  0  0  0  0
    5.6405    1.4644    0.3167 C   0  0  0  0  0  0  0  0  0  0  0  0
   -2.2756    2.1441   -0.9945 C   0  0  0  0  0  0  0  0  0  0  0  0
   -2.1386    0.0559   -2.1892 C   0  0  0  0  0  0  0  0  0  0  0  0
    5.7474    3.7575   -1.3006 C   0  0  0  0  0  0  0  0  0  0  0  0
    6.8439    2.1672    0.1759 C   0  0  0  0  0  0  0  0  0  0  0  0
   -2.8958    1.1360   -1.7370 C   0  0  0  0  0  0  0  0  0  0  0  0
    6.8936    3.3099   -0.6339 C   0  0  0  0  0  0  0  0  0  0  0  0
   -4.2349    1.3199   -1.9423 O   0  0  0  0  0  0  0  0  0  0  0  0
    8.1585    4.0388   -0.7895 N   0  0  0  0  0  0  0  0  0  0  0  0
   -5.0164    0.1990   -2.3726 C   0  0  0  0  0  0  0  0  0  0  0  0
    8.1929    4.9666   -1.6101 O   0  0  0  0  0  0  0  0  0  0  0  0
    9.1187    3.6790   -0.0942 O   0  0  0  0  0  0  0  0  0  0  0  0
   -5.1602   -0.8767   -1.3170 C   0  0  0  0  0  0  0  0  0  0  0  0
   -5.0848   -2.2318   -1.6723 C   0  0  0  0  0  0  0  0  0  0  0  0
   -5.4077   -0.5411    0.0225 C   0  0  0  0  0  0  0  0  0  0  0  0
   -5.2271   -3.2273   -0.7038 C   0  0  0  0  0  0  0  0  0  0  0  0
   -5.5496   -1.5381    0.9892 C   0  0  0  0  0  0  0  0  0  0  0  0
   -5.4574   -2.8807    0.6260 C   0  0  0  0  0  0  0  0  0  0  0  0
   -1.2603   -1.4728    3.5189 H   0  0  0  0  0  0  0  0  0  0  0  0
    0.7253   -0.5666    2.6758 H   0  0  0  0  0  0  0  0  0  0  0  0
   -0.6038   -0.1848    1.7229 H   0  0  0  0  0  0  0  0  0  0  0  0
    1.5776   -2.1701    1.2427 H   0  0  0  0  0  0  0  0  0  0  0  0
    0.2459   -1.8592    0.1148 H   0  0  0  0  0  0  0  0  0  0  0  0
   -0.8733   -3.5941    1.3427 H   0  0  0  0  0  0  0  0  0  0  0  0
   -2.1221   -2.3293    1.2931 H   0  0  0  0  0  0  0  0  0  0  0  0
   -2.1262   -3.5444    2.5778 H   0  0  0  0  0  0  0  0  0  0  0  0
    3.7448   -0.4429    1.0747 H   0  0  0  0  0  0  0  0  0  0  0  0
   -0.4644    2.8337   -0.0589 H   0  0  0  0  0  0  0  0  0  0  0  0
   -0.2160   -0.8993   -2.2081 H   0  0  0  0  0  0  0  0  0  0  0  0
    3.6636    3.4193   -1.6794 H   0  0  0  0  0  0  0  0  0  0  0  0
    5.6457    0.5805    0.9478 H   0  0  0  0  0  0  0  0  0  0  0  0
   -2.8543    3.0043   -0.6656 H   0  0  0  0  0  0  0  0  0  0  0  0
   -2.5677   -0.7273   -2.8039 H   0  0  0  0  0  0  0  0  0  0  0  0
    5.7691    4.6425   -1.9343 H   0  0  0  0  0  0  0  0  0  0  0  0
    7.7299    1.8074    0.6963 H   0  0  0  0  0  0  0  0  0  0  0  0
   -4.6315   -0.1926   -3.3221 H   0  0  0  0  0  0  0  0  0  0  0  0
   -6.0205    0.5806   -2.5918 H   0  0  0  0  0  0  0  0  0  0  0  0
   -4.9167   -2.5238   -2.7065 H   0  0  0  0  0  0  0  0  0  0  0  0
   -5.4894    0.5038    0.3178 H   0  0  0  0  0  0  0  0  0  0  0  0
   -5.1676   -4.2759   -0.9879 H   0  0  0  0  0  0  0  0  0  0  0  0
   -5.7429   -1.2676    2.0242 H   0  0  0  0  0  0  0  0  0  0  0  0
   -5.5744   -3.6578    1.3781 H   0  0  0  0  0  0  0  0  0  0  0  0
  1  2  1  0
  2  3  1  0
  1  4  1  0
  5  1  1  0
  4  6  2  0
  4  7  1  0
  3  8  1  0
  8  9  2  0
 10  8  1  0
  9 11  1  0
 12 10  2  0
 10 13  1  0
 11 14  1  0
 11 12  1  0
 13 15  2  0
 16 13  1  0
 14 17  2  0
 18 14  1  0
 15 19  1  0
 20 16  2  0
 17 21  1  0
 22 18  2  0
 19 23  2  0
 23 20  1  0
 21 24  2  0
 24 22  1  0
 23 25  1  0
 24 26  1  0
 25 27  1  0
 26 28  1  0
 26 29  2  0
 27 30  1  0
 30 31  2  0
 32 30  1  0
 31 33  1  0
 34 32  2  0
 33 35  2  0
 35 34  1  0
  1 36  1  1
  2 37  1  0
  2 38  1  0
  3 39  1  0
  3 40  1  0
  5 41  1  0
  5 42  1  0
  5 43  1  0
  9 44  1  0
 15 45  1  0
 16 46  1  0
 17 47  1  0
 18 48  1  0
 19 49  1  0
 20 50  1  0
 21 51  1  0
 22 52  1  0
 27 53  1  0
 27 54  1  0
 31 55  1  0
 32 56  1  0
 33 57  1  0
 34 58  1  0
 35 59  1  0
M  CHG  4   2   1   7  -1  26   1  28  -1
M  END
>  <SMILES_raw>  (77) 
C[C@@H](C(O)=O)NCC1=CN(C2=CC=C([N+]([O-])=O)C=C2)N=C1C3=CC=C(OCC4=CC=CC=C4)C=C3

>  <Protonation_Method>  (77) 
MolScrub

>  <Target_pH>  (77) 
7.4

$$$$
(2S)-2-(((3-(4-(benzyloxy)phenyl)-1-(4-nitrophenyl)-1H-pyrazol-4-yl)methyl)amino)-3-methylpentanoic acid
     RDKit          3D

 68 71  0  0  0  0  0  0  0  0999 V2000
   -2.6602   -2.9093   -0.1875 C   0  0  2  0  0  0  0  0  0  0  0  0
   -2.4620   -1.3917   -0.3808 N   0  0  0  0  0  0  0  0  0  0  0  0
   -1.4100   -0.8110    0.4852 C   0  0  0  0  0  0  0  0  0  0  0  0
   -1.5674   -3.6240   -1.0524 C   0  0  0  0  0  0  0  0  0  0  0  0
   -4.0812   -3.2950   -0.6620 C   0  0  0  0  0  0  0  0  0  0  0  0
   -1.2244   -2.8635   -2.0170 O   0  0  0  0  0  0  0  0  0  0  0  0
   -1.1119   -4.7037   -0.6196 O   0  0  0  0  0  0  0  0  0  0  0  0
   -4.3460   -4.8199   -0.6182 C   0  0  0  0  0  0  0  0  0  0  0  0
   -5.1763   -2.5593    0.1288 C   0  0  0  0  0  0  0  0  0  0  0  0
   -4.2630   -5.4527    0.7654 C   0  0  0  0  0  0  0  0  0  0  0  0
   -1.2333    0.6394    0.2174 C   0  0  0  0  0  0  0  0  0  0  0  0
   -2.1304    1.6560    0.4991 C   0  0  0  0  0  0  0  0  0  0  0  0
   -0.1014    1.3097   -0.3299 C   0  0  0  0  0  0  0  0  0  0  0  0
   -1.5319    2.8444    0.1450 N   0  0  0  0  0  0  0  0  0  0  0  0
   -0.2983    2.6339   -0.3550 N   0  0  0  0  0  0  0  0  0  0  0  0
    1.1691    0.7524   -0.7904 C   0  0  0  0  0  0  0  0  0  0  0  0
   -2.0500    4.1664    0.2646 C   0  0  0  0  0  0  0  0  0  0  0  0
    1.2164   -0.3425   -1.6560 C   0  0  0  0  0  0  0  0  0  0  0  0
    2.3741    1.3273   -0.3665 C   0  0  0  0  0  0  0  0  0  0  0  0
   -1.2684    5.2500   -0.1765 C   0  0  0  0  0  0  0  0  0  0  0  0
   -3.3193    4.4066    0.8134 C   0  0  0  0  0  0  0  0  0  0  0  0
    2.4475   -0.8664   -2.0624 C   0  0  0  0  0  0  0  0  0  0  0  0
    3.6053    0.8016   -0.7774 C   0  0  0  0  0  0  0  0  0  0  0  0
   -1.7422    6.5604   -0.0671 C   0  0  0  0  0  0  0  0  0  0  0  0
   -3.7993    5.7174    0.9209 C   0  0  0  0  0  0  0  0  0  0  0  0
    3.6478   -0.3009   -1.6283 C   0  0  0  0  0  0  0  0  0  0  0  0
   -3.0086    6.7863    0.4798 C   0  0  0  0  0  0  0  0  0  0  0  0
    4.7705   -0.9214   -2.0979 O   0  0  0  0  0  0  0  0  0  0  0  0
   -3.5075    8.1569    0.6121 N   0  0  0  0  0  0  0  0  0  0  0  0
    6.0514   -0.4040   -1.7301 C   0  0  0  0  0  0  0  0  0  0  0  0
   -2.6754    9.0755    0.6147 O   0  0  0  0  0  0  0  0  0  0  0  0
   -4.7330    8.3103    0.7175 O   0  0  0  0  0  0  0  0  0  0  0  0
    6.5081   -0.8396   -0.3543 C   0  0  0  0  0  0  0  0  0  0  0  0
    6.1299   -2.0801    0.1806 C   0  0  0  0  0  0  0  0  0  0  0  0
    7.3767   -0.0223    0.3850 C   0  0  0  0  0  0  0  0  0  0  0  0
    6.5850   -2.4805    1.4379 C   0  0  0  0  0  0  0  0  0  0  0  0
    7.8328   -0.4249    1.6419 C   0  0  0  0  0  0  0  0  0  0  0  0
    7.4347   -1.6526    2.1682 C   0  0  0  0  0  0  0  0  0  0  0  0
   -2.5227   -3.1109    0.8799 H   0  0  0  0  0  0  0  0  0  0  0  0
   -2.0543   -1.4003   -1.3467 H   0  0  0  0  0  0  0  0  0  0  0  0
   -3.3157   -0.8431   -0.4196 H   0  0  0  0  0  0  0  0  0  0  0  0
   -0.4899   -1.3834    0.3425 H   0  0  0  0  0  0  0  0  0  0  0  0
   -1.7414   -0.9542    1.5197 H   0  0  0  0  0  0  0  0  0  0  0  0
   -4.1878   -2.9978   -1.7153 H   0  0  0  0  0  0  0  0  0  0  0  0
   -3.6504   -5.3410   -1.2873 H   0  0  0  0  0  0  0  0  0  0  0  0
   -5.3469   -5.0160   -1.0254 H   0  0  0  0  0  0  0  0  0  0  0  0
   -5.2103   -1.4956   -0.1226 H   0  0  0  0  0  0  0  0  0  0  0  0
   -6.1675   -2.9667   -0.1036 H   0  0  0  0  0  0  0  0  0  0  0  0
   -5.0176   -2.6438    1.2087 H   0  0  0  0  0  0  0  0  0  0  0  0
   -4.9926   -5.0133    1.4535 H   0  0  0  0  0  0  0  0  0  0  0  0
   -3.2661   -5.3453    1.2027 H   0  0  0  0  0  0  0  0  0  0  0  0
   -4.4819   -6.5245    0.6976 H   0  0  0  0  0  0  0  0  0  0  0  0
   -3.1158    1.6247    0.9379 H   0  0  0  0  0  0  0  0  0  0  0  0
    0.3136   -0.8053   -2.0447 H   0  0  0  0  0  0  0  0  0  0  0  0
    2.3639    2.1931    0.2920 H   0  0  0  0  0  0  0  0  0  0  0  0
   -0.2795    5.0878   -0.6070 H   0  0  0  0  0  0  0  0  0  0  0  0
   -3.9548    3.6070    1.1802 H   0  0  0  0  0  0  0  0  0  0  0  0
    2.4650   -1.7290   -2.7262 H   0  0  0  0  0  0  0  0  0  0  0  0
    4.5066    1.2760   -0.4066 H   0  0  0  0  0  0  0  0  0  0  0  0
   -1.1203    7.3821   -0.4150 H   0  0  0  0  0  0  0  0  0  0  0  0
   -4.7830    5.8930    1.3539 H   0  0  0  0  0  0  0  0  0  0  0  0
    6.0820    0.6867   -1.8510 H   0  0  0  0  0  0  0  0  0  0  0  0
    6.7701   -0.8074   -2.4547 H   0  0  0  0  0  0  0  0  0  0  0  0
    5.4716   -2.7423   -0.3796 H   0  0  0  0  0  0  0  0  0  0  0  0
    7.7051    0.9347   -0.0144 H   0  0  0  0  0  0  0  0  0  0  0  0
    6.2773   -3.4403    1.8439 H   0  0  0  0  0  0  0  0  0  0  0  0
    8.5038    0.2152    2.2077 H   0  0  0  0  0  0  0  0  0  0  0  0
    7.7912   -1.9693    3.1447 H   0  0  0  0  0  0  0  0  0  0  0  0
  1  2  1  0
  2  3  1  0
  1  4  1  0
  5  1  1  0
  4  6  2  0
  4  7  1  0
  8  5  1  0
  5  9  1  0
 10  8  1  0
  3 11  1  0
 11 12  2  0
 13 11  1  0
 12 14  1  0
 15 13  2  0
 13 16  1  0
 14 17  1  0
 14 15  1  0
 16 18  2  0
 19 16  1  0
 17 20  2  0
 21 17  1  0
 18 22  1  0
 23 19  2  0
 20 24  1  0
 25 21  2  0
 22 26  2  0
 26 23  1  0
 24 27  2  0
 27 25  1  0
 26 28  1  0
 27 29  1  0
 28 30  1  0
 29 31  1  0
 29 32  2  0
 30 33  1  0
 33 34  2  0
 35 33  1  0
 34 36  1  0
 37 35  2  0
 36 38  2  0
 38 37  1  0
  1 39  1  1
  2 40  1  0
  2 41  1  0
  3 42  1  0
  3 43  1  0
  5 44  1  0
  8 45  1  0
  8 46  1  0
  9 47  1  0
  9 48  1  0
  9 49  1  0
 10 50  1  0
 10 51  1  0
 10 52  1  0
 12 53  1  0
 18 54  1  0
 19 55  1  0
 20 56  1  0
 21 57  1  0
 22 58  1  0
 23 59  1  0
 24 60  1  0
 25 61  1  0
 30 62  1  0
 30 63  1  0
 34 64  1  0
 35 65  1  0
 36 66  1  0
 37 67  1  0
 38 68  1  0
M  CHG  4   2   1   7  -1  29   1  31  -1
M  END
>  <SMILES_raw>  (78) 
CCC(C)[C@H](NCC1=CN(C2=CC=C([N+]([O-])=O)C=C2)N=C1C3=CC=C(OCC4=CC=CC=C4)C=C3)C(O)=O

>  <Protonation_Method>  (78) 
MolScrub

>  <Target_pH>  (78) 
7.4

$$$$
N-((3-(4-(benzyloxy)phenyl)-1(4-nitrophenyl)-1H-pyrazol-4-yl)methyl)-L-tyrosin
     RDKit          3D

 70 74  0  0  0  0  0  0  0  0999 V2000
   -3.6765   -1.3571   -0.2726 C   0  0  2  0  0  0  0  0  0  0  0  0
   -2.1824   -1.2105    0.0992 N   0  0  0  0  0  0  0  0  0  0  0  0
   -1.3475   -0.6562   -1.0006 C   0  0  0  0  0  0  0  0  0  0  0  0
   -4.3305    0.0537   -0.1685 C   0  0  0  0  0  0  0  0  0  0  0  0
   -4.3239   -2.2833    0.7639 C   0  0  0  0  0  0  0  0  0  0  0  0
   -3.9321    0.6494    0.8843 O   0  0  0  0  0  0  0  0  0  0  0  0
   -4.9441    0.4610   -1.1788 O   0  0  0  0  0  0  0  0  0  0  0  0
   -5.7372   -2.6748    0.4087 C   0  0  0  0  0  0  0  0  0  0  0  0
   -6.8195   -2.0313    1.0289 C   0  0  0  0  0  0  0  0  0  0  0  0
   -5.9881   -3.6557   -0.5659 C   0  0  0  0  0  0  0  0  0  0  0  0
   -8.1290   -2.3678    0.6843 C   0  0  0  0  0  0  0  0  0  0  0  0
   -7.3009   -3.9865   -0.9108 C   0  0  0  0  0  0  0  0  0  0  0  0
   -8.3597   -3.3391   -0.2826 C   0  0  0  0  0  0  0  0  0  0  0  0
   -9.6546   -3.6254   -0.6006 O   0  0  0  0  0  0  0  0  0  0  0  0
   -0.6418    0.5856   -0.6110 C   0  0  0  0  0  0  0  0  0  0  0  0
   -1.2089    1.8339   -0.4552 C   0  0  0  0  0  0  0  0  0  0  0  0
    0.7369    0.7936   -0.3399 C   0  0  0  0  0  0  0  0  0  0  0  0
   -0.2091    2.7081   -0.1063 N   0  0  0  0  0  0  0  0  0  0  0  0
    0.9943    2.0827   -0.0891 N   0  0  0  0  0  0  0  0  0  0  0  0
    1.8072   -0.1963   -0.3134 C   0  0  0  0  0  0  0  0  0  0  0  0
   -0.3269    4.0914    0.2062 C   0  0  0  0  0  0  0  0  0  0  0  0
    2.9405   -0.0367   -1.1173 C   0  0  0  0  0  0  0  0  0  0  0  0
    1.7196   -1.3084    0.5297 C   0  0  0  0  0  0  0  0  0  0  0  0
    0.8331    4.8451    0.4594 C   0  0  0  0  0  0  0  0  0  0  0  0
   -1.5854    4.7102    0.2842 C   0  0  0  0  0  0  0  0  0  0  0  0
    3.9675   -0.9890   -1.0979 C   0  0  0  0  0  0  0  0  0  0  0  0
    2.7447   -2.2572    0.5438 C   0  0  0  0  0  0  0  0  0  0  0  0
    0.7389    6.2035    0.7818 C   0  0  0  0  0  0  0  0  0  0  0  0
   -1.6842    6.0672    0.6115 C   0  0  0  0  0  0  0  0  0  0  0  0
    3.8710   -2.1067   -0.2695 C   0  0  0  0  0  0  0  0  0  0  0  0
   -0.5201    6.8105    0.8532 C   0  0  0  0  0  0  0  0  0  0  0  0
    4.7961   -3.1023   -0.1344 O   0  0  0  0  0  0  0  0  0  0  0  0
   -0.6258    8.2308    1.2087 N   0  0  0  0  0  0  0  0  0  0  0  0
    5.9893   -3.0515   -0.9229 C   0  0  0  0  0  0  0  0  0  0  0  0
   -1.7341    8.7750    1.0898 O   0  0  0  0  0  0  0  0  0  0  0  0
    0.3978    8.7992    1.6158 O   0  0  0  0  0  0  0  0  0  0  0  0
    7.0441   -2.1201   -0.3689 C   0  0  0  0  0  0  0  0  0  0  0  0
    7.9549   -1.5025   -1.2394 C   0  0  0  0  0  0  0  0  0  0  0  0
    7.1720   -1.8976    1.0087 C   0  0  0  0  0  0  0  0  0  0  0  0
    8.9513   -0.6588   -0.7445 C   0  0  0  0  0  0  0  0  0  0  0  0
    8.1689   -1.0532    1.5022 C   0  0  0  0  0  0  0  0  0  0  0  0
    9.0567   -0.4325    0.6257 C   0  0  0  0  0  0  0  0  0  0  0  0
   -3.7199   -1.7808   -1.2824 H   0  0  0  0  0  0  0  0  0  0  0  0
   -2.2607   -0.4637    0.8285 H   0  0  0  0  0  0  0  0  0  0  0  0
   -1.7839   -2.0386    0.5386 H   0  0  0  0  0  0  0  0  0  0  0  0
   -1.9905   -0.4632   -1.8673 H   0  0  0  0  0  0  0  0  0  0  0  0
   -0.6524   -1.4504   -1.2891 H   0  0  0  0  0  0  0  0  0  0  0  0
   -4.3133   -1.8291    1.7646 H   0  0  0  0  0  0  0  0  0  0  0  0
   -3.7346   -3.2057    0.8594 H   0  0  0  0  0  0  0  0  0  0  0  0
   -6.6514   -1.2460    1.7659 H   0  0  0  0  0  0  0  0  0  0  0  0
   -5.1687   -4.1631   -1.0735 H   0  0  0  0  0  0  0  0  0  0  0  0
   -8.9655   -1.8536    1.1486 H   0  0  0  0  0  0  0  0  0  0  0  0
   -7.4777   -4.7381   -1.6758 H   0  0  0  0  0  0  0  0  0  0  0  0
   -9.6624   -4.2482   -1.3465 H   0  0  0  0  0  0  0  0  0  0  0  0
   -2.2381    2.1516   -0.5634 H   0  0  0  0  0  0  0  0  0  0  0  0
    3.0352    0.8411   -1.7538 H   0  0  0  0  0  0  0  0  0  0  0  0
    0.8789   -1.4294    1.2070 H   0  0  0  0  0  0  0  0  0  0  0  0
    1.8180    4.3843    0.4097 H   0  0  0  0  0  0  0  0  0  0  0  0
   -2.5122    4.1642    0.1197 H   0  0  0  0  0  0  0  0  0  0  0  0
    4.8333   -0.8109   -1.7267 H   0  0  0  0  0  0  0  0  0  0  0  0
    2.6779   -3.1133    1.2123 H   0  0  0  0  0  0  0  0  0  0  0  0
    1.6498    6.7680    0.9739 H   0  0  0  0  0  0  0  0  0  0  0  0
   -2.6698    6.5212    0.6804 H   0  0  0  0  0  0  0  0  0  0  0  0
    6.4121   -4.0637   -0.9111 H   0  0  0  0  0  0  0  0  0  0  0  0
    5.7517   -2.8350   -1.9715 H   0  0  0  0  0  0  0  0  0  0  0  0
    7.8949   -1.6761   -2.3108 H   0  0  0  0  0  0  0  0  0  0  0  0
    6.4911   -2.3792    1.7075 H   0  0  0  0  0  0  0  0  0  0  0  0
    9.6491   -0.1811   -1.4280 H   0  0  0  0  0  0  0  0  0  0  0  0
    8.2535   -0.8839    2.5728 H   0  0  0  0  0  0  0  0  0  0  0  0
    9.8336    0.2226    1.0110 H   0  0  0  0  0  0  0  0  0  0  0  0
  1  2  1  0
  2  3  1  0
  1  4  1  0
  5  1  1  0
  4  6  2  0
  4  7  1  0
  8  5  1  0
  9  8  2  0
  8 10  1  0
 11  9  1  0
 10 12  2  0
 13 11  2  0
 12 13  1  0
 14 13  1  0
  3 15  1  0
 15 16  2  0
 17 15  1  0
 16 18  1  0
 19 17  2  0
 17 20  1  0
 18 21  1  0
 18 19  1  0
 20 22  2  0
 23 20  1  0
 21 24  2  0
 25 21  1  0
 22 26  1  0
 27 23  2  0
 24 28  1  0
 29 25  2  0
 26 30  2  0
 30 27  1  0
 28 31  2  0
 31 29  1  0
 30 32  1  0
 31 33  1  0
 32 34  1  0
 33 35  1  0
 33 36  2  0
 34 37  1  0
 37 38  2  0
 39 37  1  0
 38 40  1  0
 41 39  2  0
 40 42  2  0
 42 41  1  0
  1 43  1  6
  2 44  1  0
  2 45  1  0
  3 46  1  0
  3 47  1  0
  5 48  1  0
  5 49  1  0
  9 50  1  0
 10 51  1  0
 11 52  1  0
 12 53  1  0
 14 54  1  0
 16 55  1  0
 22 56  1  0
 23 57  1  0
 24 58  1  0
 25 59  1  0
 26 60  1  0
 27 61  1  0
 28 62  1  0
 29 63  1  0
 34 64  1  0
 34 65  1  0
 38 66  1  0
 39 67  1  0
 40 68  1  0
 41 69  1  0
 42 70  1  0
M  CHG  4   2   1   7  -1  33   1  35  -1
M  END
>  <SMILES_raw>  (79) 
OC1=CC=C(C=C1)C[C@@H](C(O)=O)NCC2=CN(C3=CC=C([N+]([O-])=O)C=C3)N=C2C4=CC=C(OCC5=CC=CC=C5)C=C4

>  <Protonation_Method>  (79) 
MolScrub

>  <Target_pH>  (79) 
7.4

$$$$
3-(((3-(4-((4-chlorobenzyl)oxy)phenyl)-1(4-nitrophenyl)-1H-pyrazol-4-yl)methyl)amino)benzoic acid
     RDKit          3D

 62 66  0  0  0  0  0  0  0  0999 V2000
   -2.4850   -5.3668    1.5093 C   0  0  0  0  0  0  0  0  0  0  0  0
   -2.2761   -5.9488    2.8934 C   0  0  0  0  0  0  0  0  0  0  0  0
   -2.3296   -7.2144    3.0046 O   0  0  0  0  0  0  0  0  0  0  0  0
   -2.0651   -5.1275    3.8422 O   0  0  0  0  0  0  0  0  0  0  0  0
   -2.7433   -6.1946    0.4089 C   0  0  0  0  0  0  0  0  0  0  0  0
   -2.4261   -3.9748    1.2994 C   0  0  0  0  0  0  0  0  0  0  0  0
   -2.9369   -5.6480   -0.8575 C   0  0  0  0  0  0  0  0  0  0  0  0
   -2.6276   -3.3999    0.0380 C   0  0  0  0  0  0  0  0  0  0  0  0
   -2.8776   -4.2636   -1.0364 C   0  0  0  0  0  0  0  0  0  0  0  0
   -2.5674   -2.0378   -0.1964 N   0  0  0  0  0  0  0  0  0  0  0  0
   -2.2774   -1.0649    0.8397 C   0  0  0  0  0  0  0  0  0  0  0  0
   -2.2790    0.3504    0.3540 C   0  0  0  0  0  0  0  0  0  0  0  0
   -3.3870    1.1628    0.2114 C   0  0  0  0  0  0  0  0  0  0  0  0
   -1.1837    1.1643   -0.0551 C   0  0  0  0  0  0  0  0  0  0  0  0
   -2.9473    2.3813   -0.2352 N   0  0  0  0  0  0  0  0  0  0  0  0
   -1.6034    2.3969   -0.3845 N   0  0  0  0  0  0  0  0  0  0  0  0
    0.2401    0.8277   -0.1316 C   0  0  0  0  0  0  0  0  0  0  0  0
   -3.7235    3.5410   -0.5277 C   0  0  0  0  0  0  0  0  0  0  0  0
    0.6740   -0.4163   -0.6011 C   0  0  0  0  0  0  0  0  0  0  0  0
    1.2035    1.7698    0.2571 C   0  0  0  0  0  0  0  0  0  0  0  0
   -5.1175    3.5438   -0.3653 C   0  0  0  0  0  0  0  0  0  0  0  0
   -3.0788    4.7024   -0.9886 C   0  0  0  0  0  0  0  0  0  0  0  0
    2.0395   -0.7146   -0.6582 C   0  0  0  0  0  0  0  0  0  0  0  0
    2.5706    1.4695    0.2004 C   0  0  0  0  0  0  0  0  0  0  0  0
   -5.8583    4.6949   -0.6601 C   0  0  0  0  0  0  0  0  0  0  0  0
   -3.8145    5.8541   -1.2847 C   0  0  0  0  0  0  0  0  0  0  0  0
    2.9930    0.2200   -0.2510 C   0  0  0  0  0  0  0  0  0  0  0  0
   -5.2040    5.8455   -1.1189 C   0  0  0  0  0  0  0  0  0  0  0  0
    4.2891   -0.2018   -0.3562 O   0  0  0  0  0  0  0  0  0  0  0  0
   -5.9821    7.0514   -1.4283 N   0  0  0  0  0  0  0  0  0  0  0  0
    5.2839    0.6174    0.2533 C   0  0  0  0  0  0  0  0  0  0  0  0
   -5.3651    8.0535   -1.8187 O   0  0  0  0  0  0  0  0  0  0  0  0
   -7.2122    6.9981   -1.2814 O   0  0  0  0  0  0  0  0  0  0  0  0
    6.6049   -0.1115    0.1782 C   0  0  0  0  0  0  0  0  0  0  0  0
    6.8199   -1.2589    0.9582 C   0  0  0  0  0  0  0  0  0  0  0  0
    7.6238    0.3308   -0.6784 C   0  0  0  0  0  0  0  0  0  0  0  0
    8.0350   -1.9441    0.8924 C   0  0  0  0  0  0  0  0  0  0  0  0
    8.8395   -0.3545   -0.7438 C   0  0  0  0  0  0  0  0  0  0  0  0
    9.0402   -1.4875    0.0428 C   0  0  0  0  0  0  0  0  0  0  0  0
   10.5395   -2.3284   -0.0399 Cl  0  0  0  0  0  0  0  0  0  0  0  0
   -2.7900   -7.2725    0.5546 H   0  0  0  0  0  0  0  0  0  0  0  0
   -2.2209   -3.3555    2.1699 H   0  0  0  0  0  0  0  0  0  0  0  0
   -3.1328   -6.3017   -1.7013 H   0  0  0  0  0  0  0  0  0  0  0  0
   -3.0288   -3.8616   -2.0336 H   0  0  0  0  0  0  0  0  0  0  0  0
   -2.8029   -1.6944   -1.1158 H   0  0  0  0  0  0  0  0  0  0  0  0
   -3.0323   -1.1458    1.6337 H   0  0  0  0  0  0  0  0  0  0  0  0
   -1.3096   -1.2854    1.3063 H   0  0  0  0  0  0  0  0  0  0  0  0
   -4.4272    0.9486    0.4032 H   0  0  0  0  0  0  0  0  0  0  0  0
   -0.0339   -1.1716   -0.9338 H   0  0  0  0  0  0  0  0  0  0  0  0
    0.8894    2.7494    0.6124 H   0  0  0  0  0  0  0  0  0  0  0  0
   -5.6584    2.6705   -0.0111 H   0  0  0  0  0  0  0  0  0  0  0  0
   -1.9975    4.7222   -1.1241 H   0  0  0  0  0  0  0  0  0  0  0  0
    2.3577   -1.6913   -1.0168 H   0  0  0  0  0  0  0  0  0  0  0  0
    3.2705    2.2367    0.5120 H   0  0  0  0  0  0  0  0  0  0  0  0
   -6.9385    4.6751   -0.5261 H   0  0  0  0  0  0  0  0  0  0  0  0
   -3.2896    6.7380   -1.6409 H   0  0  0  0  0  0  0  0  0  0  0  0
    5.3573    1.5763   -0.2752 H   0  0  0  0  0  0  0  0  0  0  0  0
    5.0493    0.8062    1.3094 H   0  0  0  0  0  0  0  0  0  0  0  0
    6.0318   -1.6291    1.6128 H   0  0  0  0  0  0  0  0  0  0  0  0
    7.4743    1.2067   -1.3058 H   0  0  0  0  0  0  0  0  0  0  0  0
    8.1839   -2.8337    1.4991 H   0  0  0  0  0  0  0  0  0  0  0  0
    9.6203   -0.0040   -1.4131 H   0  0  0  0  0  0  0  0  0  0  0  0
  1  2  1  0
  2  3  2  0
  2  4  1  0
  1  5  2  0
  6  1  1  0
  5  7  1  0
  8  6  2  0
  7  9  2  0
  9  8  1  0
  8 10  1  0
 10 11  1  0
 11 12  1  0
 12 13  2  0
 14 12  1  0
 13 15  1  0
 16 14  2  0
 14 17  1  0
 15 18  1  0
 15 16  1  0
 17 19  2  0
 20 17  1  0
 18 21  2  0
 22 18  1  0
 19 23  1  0
 24 20  2  0
 21 25  1  0
 26 22  2  0
 23 27  2  0
 27 24  1  0
 25 28  2  0
 28 26  1  0
 27 29  1  0
 28 30  1  0
 29 31  1  0
 30 32  1  0
 30 33  2  0
 31 34  1  0
 34 35  2  0
 36 34  1  0
 35 37  1  0
 38 36  2  0
 37 39  2  0
 39 38  1  0
 39 40  1  0
  5 41  1  0
  6 42  1  0
  7 43  1  0
  9 44  1  0
 10 45  1  0
 11 46  1  0
 11 47  1  0
 13 48  1  0
 19 49  1  0
 20 50  1  0
 21 51  1  0
 22 52  1  0
 23 53  1  0
 24 54  1  0
 25 55  1  0
 26 56  1  0
 31 57  1  0
 31 58  1  0
 35 59  1  0
 36 60  1  0
 37 61  1  0
 38 62  1  0
M  CHG  3   4  -1  30   1  32  -1
M  END
>  <SMILES_raw>  (80) 
O=C(O)C1=CC=CC(NCC2=CN(C3=CC=C([N+]([O-])=O)C=C3)N=C2C4=CC=C(OCC5=CC=C(Cl)C=C5)C=C4)=C1

>  <Protonation_Method>  (80) 
MolScrub

>  <Target_pH>  (80) 
7.4

$$$$
N-((3-(4-((4-chlorobenzyl)oxy)phenyl)-1(4-nitrophenyl)-1H-pyrazol-4-yl)methyl)-L-alanin
     RDKit          3D

 59 62  0  0  0  0  0  0  0  0999 V2000
   -3.8909   -3.2537   -0.2181 C   0  0  2  0  0  0  0  0  0  0  0  0
   -2.3810   -3.1148   -0.0045 N   0  0  0  0  0  0  0  0  0  0  0  0
   -1.9797   -2.1495    1.0426 C   0  0  0  0  0  0  0  0  0  0  0  0
   -4.4632   -4.2655    0.8177 C   0  0  0  0  0  0  0  0  0  0  0  0
   -4.1209   -3.8080   -1.6127 C   0  0  0  0  0  0  0  0  0  0  0  0
   -3.5007   -4.8785    1.3896 O   0  0  0  0  0  0  0  0  0  0  0  0
   -5.7028   -4.2888    0.9742 O   0  0  0  0  0  0  0  0  0  0  0  0
   -1.9328   -0.7502    0.5460 C   0  0  0  0  0  0  0  0  0  0  0  0
   -2.9639    0.1690    0.4936 C   0  0  0  0  0  0  0  0  0  0  0  0
   -0.8086   -0.0364    0.0509 C   0  0  0  0  0  0  0  0  0  0  0  0
   -2.4485    1.3449   -0.0066 N   0  0  0  0  0  0  0  0  0  0  0  0
   -1.1272    1.2202   -0.2713 N   0  0  0  0  0  0  0  0  0  0  0  0
    0.5535   -0.5199   -0.1084 C   0  0  0  0  0  0  0  0  0  0  0  0
   -3.1290    2.5718   -0.2523 C   0  0  0  0  0  0  0  0  0  0  0  0
    1.5484   -0.1141    0.7865 C   0  0  0  0  0  0  0  0  0  0  0  0
    0.8774   -1.3946   -1.1490 C   0  0  0  0  0  0  0  0  0  0  0  0
   -4.5028    2.7060    0.0007 C   0  0  0  0  0  0  0  0  0  0  0  0
   -2.4081    3.6675   -0.7603 C   0  0  0  0  0  0  0  0  0  0  0  0
    2.8568   -0.5967    0.6584 C   0  0  0  0  0  0  0  0  0  0  0  0
    2.1840   -1.8757   -1.2706 C   0  0  0  0  0  0  0  0  0  0  0  0
   -5.1495    3.9213   -0.2566 C   0  0  0  0  0  0  0  0  0  0  0  0
   -3.0500    4.8832   -1.0158 C   0  0  0  0  0  0  0  0  0  0  0  0
    3.1773   -1.4886   -0.3650 C   0  0  0  0  0  0  0  0  0  0  0  0
   -4.4206    5.0055   -0.7641 C   0  0  0  0  0  0  0  0  0  0  0  0
    4.4069   -2.0329   -0.6108 O   0  0  0  0  0  0  0  0  0  0  0  0
   -5.1014    6.2769   -1.0392 N   0  0  0  0  0  0  0  0  0  0  0  0
    5.4574   -1.8179    0.3376 C   0  0  0  0  0  0  0  0  0  0  0  0
   -4.4163    7.2165   -1.4659 O   0  0  0  0  0  0  0  0  0  0  0  0
   -6.3231    6.3319   -0.8338 O   0  0  0  0  0  0  0  0  0  0  0  0
    6.1939   -0.5120    0.1255 C   0  0  0  0  0  0  0  0  0  0  0  0
    6.3819    0.0137   -1.1623 C   0  0  0  0  0  0  0  0  0  0  0  0
    6.7539    0.1634    1.2209 C   0  0  0  0  0  0  0  0  0  0  0  0
    7.0903    1.2035   -1.3487 C   0  0  0  0  0  0  0  0  0  0  0  0
    7.4632    1.3535    1.0339 C   0  0  0  0  0  0  0  0  0  0  0  0
    7.6262    1.8695   -0.2495 C   0  0  0  0  0  0  0  0  0  0  0  0
    8.5008    3.3339   -0.4784 Cl  0  0  0  0  0  0  0  0  0  0  0  0
   -4.3472   -2.2663   -0.1095 H   0  0  0  0  0  0  0  0  0  0  0  0
   -1.8372   -3.0577   -0.8643 H   0  0  0  0  0  0  0  0  0  0  0  0
   -2.2013   -4.0500    0.4347 H   0  0  0  0  0  0  0  0  0  0  0  0
   -0.9927   -2.4719    1.3937 H   0  0  0  0  0  0  0  0  0  0  0  0
   -2.6728   -2.2470    1.8861 H   0  0  0  0  0  0  0  0  0  0  0  0
   -5.1920   -3.9064   -1.8190 H   0  0  0  0  0  0  0  0  0  0  0  0
   -3.6691   -4.7994   -1.7339 H   0  0  0  0  0  0  0  0  0  0  0  0
   -3.6955   -3.1445   -2.3735 H   0  0  0  0  0  0  0  0  0  0  0  0
   -4.0008    0.0764    0.7829 H   0  0  0  0  0  0  0  0  0  0  0  0
    1.3160    0.5926    1.5815 H   0  0  0  0  0  0  0  0  0  0  0  0
    0.1354   -1.6840   -1.8877 H   0  0  0  0  0  0  0  0  0  0  0  0
   -5.1028    1.8912    0.3955 H   0  0  0  0  0  0  0  0  0  0  0  0
   -1.3399    3.5904   -0.9637 H   0  0  0  0  0  0  0  0  0  0  0  0
    3.5993   -0.2366    1.3630 H   0  0  0  0  0  0  0  0  0  0  0  0
    2.4382   -2.5482   -2.0878 H   0  0  0  0  0  0  0  0  0  0  0  0
   -6.2162    4.0054   -0.0557 H   0  0  0  0  0  0  0  0  0  0  0  0
   -2.4665    5.7176   -1.4047 H   0  0  0  0  0  0  0  0  0  0  0  0
    5.0883   -1.9252    1.3655 H   0  0  0  0  0  0  0  0  0  0  0  0
    6.1809   -2.6289    0.1898 H   0  0  0  0  0  0  0  0  0  0  0  0
    5.9721   -0.5011   -2.0308 H   0  0  0  0  0  0  0  0  0  0  0  0
    6.6436   -0.2321    2.2282 H   0  0  0  0  0  0  0  0  0  0  0  0
    7.2209    1.6010   -2.3514 H   0  0  0  0  0  0  0  0  0  0  0  0
    7.8884    1.8703    1.8900 H   0  0  0  0  0  0  0  0  0  0  0  0
  1  2  1  0
  2  3  1  0
  1  4  1  0
  5  1  1  0
  4  6  2  0
  4  7  1  0
  3  8  1  0
  8  9  2  0
 10  8  1  0
  9 11  1  0
 12 10  2  0
 10 13  1  0
 11 14  1  0
 11 12  1  0
 13 15  2  0
 16 13  1  0
 14 17  2  0
 18 14  1  0
 15 19  1  0
 20 16  2  0
 17 21  1  0
 22 18  2  0
 19 23  2  0
 23 20  1  0
 21 24  2  0
 24 22  1  0
 23 25  1  0
 24 26  1  0
 25 27  1  0
 26 28  1  0
 26 29  2  0
 27 30  1  0
 30 31  2  0
 32 30  1  0
 31 33  1  0
 34 32  2  0
 33 35  2  0
 35 34  1  0
 35 36  1  0
  1 37  1  6
  2 38  1  0
  2 39  1  0
  3 40  1  0
  3 41  1  0
  5 42  1  0
  5 43  1  0
  5 44  1  0
  9 45  1  0
 15 46  1  0
 16 47  1  0
 17 48  1  0
 18 49  1  0
 19 50  1  0
 20 51  1  0
 21 52  1  0
 22 53  1  0
 27 54  1  0
 27 55  1  0
 31 56  1  0
 32 57  1  0
 33 58  1  0
 34 59  1  0
M  CHG  4   2   1   7  -1  26   1  28  -1
M  END
>  <SMILES_raw>  (81) 
C[C@@H](C(O)=O)NCC1=CN(C2=CC=C([N+]([O-])=O)C=C2)N=C1C3=CC=C(OCC4=CC=C(Cl)C=C4)C=C3

>  <Protonation_Method>  (81) 
MolScrub

>  <Target_pH>  (81) 
7.4

$$$$
N-((3-(4-((3-chlorobenzyl)oxy)phenyl)-1-phenyl-1H-pyrazol-4-yl)methyl)-L-leucin
     RDKit          3D

 66 69  0  0  0  0  0  0  0  0999 V2000
   -3.2691   -1.8302   -1.2774 C   0  0  2  0  0  0  0  0  0  0  0  0
   -2.8024   -0.5742   -0.5210 N   0  0  0  0  0  0  0  0  0  0  0  0
   -1.6095    0.0898   -1.1004 C   0  0  0  0  0  0  0  0  0  0  0  0
   -4.1702   -1.3613   -2.4658 C   0  0  0  0  0  0  0  0  0  0  0  0
   -4.1041   -2.6540   -0.2901 C   0  0  0  0  0  0  0  0  0  0  0  0
   -4.6024   -0.1833   -2.2331 O   0  0  0  0  0  0  0  0  0  0  0  0
   -4.2582   -2.1163   -3.4544 O   0  0  0  0  0  0  0  0  0  0  0  0
   -4.5290   -4.0484   -0.7931 C   0  0  0  0  0  0  0  0  0  0  0  0
   -3.3268   -4.9527   -1.0788 C   0  0  0  0  0  0  0  0  0  0  0  0
   -5.4398   -4.7120    0.2451 C   0  0  0  0  0  0  0  0  0  0  0  0
   -1.2937    1.3488   -0.3768 C   0  0  0  0  0  0  0  0  0  0  0  0
   -2.1777    2.2974    0.1074 C   0  0  0  0  0  0  0  0  0  0  0  0
   -0.0126    1.8895   -0.0822 C   0  0  0  0  0  0  0  0  0  0  0  0
   -1.4351    3.3114    0.6720 N   0  0  0  0  0  0  0  0  0  0  0  0
   -0.1118    3.0491    0.5742 N   0  0  0  0  0  0  0  0  0  0  0  0
    1.2973    1.3597   -0.4373 C   0  0  0  0  0  0  0  0  0  0  0  0
   -1.9031    4.5015    1.2950 C   0  0  0  0  0  0  0  0  0  0  0  0
    1.7645    0.1562    0.1017 C   0  0  0  0  0  0  0  0  0  0  0  0
    2.1075    2.0717   -1.3269 C   0  0  0  0  0  0  0  0  0  0  0  0
   -3.2705    4.8086    1.3448 C   0  0  0  0  0  0  0  0  0  0  0  0
   -0.9770    5.3883    1.8681 C   0  0  0  0  0  0  0  0  0  0  0  0
    3.0241   -0.3412   -0.2620 C   0  0  0  0  0  0  0  0  0  0  0  0
    3.3608    1.5723   -1.6870 C   0  0  0  0  0  0  0  0  0  0  0  0
   -3.6986    5.9879    1.9629 C   0  0  0  0  0  0  0  0  0  0  0  0
   -1.4138    6.5613    2.4862 C   0  0  0  0  0  0  0  0  0  0  0  0
    3.8230    0.3615   -1.1654 C   0  0  0  0  0  0  0  0  0  0  0  0
   -2.7728    6.8611    2.5327 C   0  0  0  0  0  0  0  0  0  0  0  0
    5.0704    0.0043   -1.5939 O   0  0  0  0  0  0  0  0  0  0  0  0
    5.5504   -1.3102   -1.2996 C   0  0  0  0  0  0  0  0  0  0  0  0
    6.2131   -1.4269    0.0557 C   0  0  0  0  0  0  0  0  0  0  0  0
    6.7835   -0.3164    0.6973 C   0  0  0  0  0  0  0  0  0  0  0  0
    6.3150   -2.6850    0.6683 C   0  0  0  0  0  0  0  0  0  0  0  0
    7.4143   -0.4536    1.9361 C   0  0  0  0  0  0  0  0  0  0  0  0
    6.9449   -2.8154    1.9070 C   0  0  0  0  0  0  0  0  0  0  0  0
    7.4916   -1.7054    2.5450 C   0  0  0  0  0  0  0  0  0  0  0  0
    7.0419   -4.3646    2.6539 Cl  0  0  0  0  0  0  0  0  0  0  0  0
   -2.3695   -2.3517   -1.6143 H   0  0  0  0  0  0  0  0  0  0  0  0
   -3.6032    0.0612   -0.7617 H   0  0  0  0  0  0  0  0  0  0  0  0
   -2.7722   -0.6758    0.4939 H   0  0  0  0  0  0  0  0  0  0  0  0
   -0.7903   -0.6330   -1.0269 H   0  0  0  0  0  0  0  0  0  0  0  0
   -1.8110    0.2961   -2.1581 H   0  0  0  0  0  0  0  0  0  0  0  0
   -3.5436   -2.7795    0.6473 H   0  0  0  0  0  0  0  0  0  0  0  0
   -5.0110   -2.0866   -0.0317 H   0  0  0  0  0  0  0  0  0  0  0  0
   -5.1086   -3.9431   -1.7187 H   0  0  0  0  0  0  0  0  0  0  0  0
   -2.6723   -5.0312   -0.2038 H   0  0  0  0  0  0  0  0  0  0  0  0
   -3.6552   -5.9630   -1.3470 H   0  0  0  0  0  0  0  0  0  0  0  0
   -2.7376   -4.5742   -1.9175 H   0  0  0  0  0  0  0  0  0  0  0  0
   -4.9176   -4.8615    1.1963 H   0  0  0  0  0  0  0  0  0  0  0  0
   -5.7839   -5.6894   -0.1095 H   0  0  0  0  0  0  0  0  0  0  0  0
   -6.3262   -4.0951    0.4347 H   0  0  0  0  0  0  0  0  0  0  0  0
   -3.2563    2.3392    0.0725 H   0  0  0  0  0  0  0  0  0  0  0  0
    1.1724   -0.3919    0.8308 H   0  0  0  0  0  0  0  0  0  0  0  0
    1.7729    3.0228   -1.7361 H   0  0  0  0  0  0  0  0  0  0  0  0
   -4.0281    4.1673    0.9068 H   0  0  0  0  0  0  0  0  0  0  0  0
    0.0911    5.1782    1.8454 H   0  0  0  0  0  0  0  0  0  0  0  0
    3.3597   -1.2639    0.1989 H   0  0  0  0  0  0  0  0  0  0  0  0
    3.9837    2.1370   -2.3772 H   0  0  0  0  0  0  0  0  0  0  0  0
   -4.7581    6.2302    1.9956 H   0  0  0  0  0  0  0  0  0  0  0  0
   -0.6903    7.2427    2.9291 H   0  0  0  0  0  0  0  0  0  0  0  0
   -3.1102    7.7778    3.0106 H   0  0  0  0  0  0  0  0  0  0  0  0
    6.3113   -1.5372   -2.0564 H   0  0  0  0  0  0  0  0  0  0  0  0
    4.7555   -2.0551   -1.4301 H   0  0  0  0  0  0  0  0  0  0  0  0
    6.7366    0.6685    0.2360 H   0  0  0  0  0  0  0  0  0  0  0  0
    5.9071   -3.5666    0.1797 H   0  0  0  0  0  0  0  0  0  0  0  0
    7.8468    0.4168    2.4231 H   0  0  0  0  0  0  0  0  0  0  0  0
    7.9840   -1.8084    3.5086 H   0  0  0  0  0  0  0  0  0  0  0  0
  1  2  1  0
  2  3  1  0
  1  4  1  0
  5  1  1  0
  4  6  2  0
  4  7  1  0
  8  5  1  0
  9  8  1  0
  8 10  1  0
  3 11  1  0
 11 12  2  0
 13 11  1  0
 12 14  1  0
 15 13  2  0
 13 16  1  0
 14 17  1  0
 14 15  1  0
 16 18  2  0
 19 16  1  0
 17 20  2  0
 21 17  1  0
 18 22  1  0
 23 19  2  0
 20 24  1  0
 25 21  2  0
 22 26  2  0
 26 23  1  0
 24 27  2  0
 27 25  1  0
 26 28  1  0
 28 29  1  0
 29 30  1  0
 30 31  2  0
 32 30  1  0
 31 33  1  0
 34 32  2  0
 33 35  2  0
 35 34  1  0
 34 36  1  0
  1 37  1  6
  2 38  1  0
  2 39  1  0
  3 40  1  0
  3 41  1  0
  5 42  1  0
  5 43  1  0
  8 44  1  0
  9 45  1  0
  9 46  1  0
  9 47  1  0
 10 48  1  0
 10 49  1  0
 10 50  1  0
 12 51  1  0
 18 52  1  0
 19 53  1  0
 20 54  1  0
 21 55  1  0
 22 56  1  0
 23 57  1  0
 24 58  1  0
 25 59  1  0
 27 60  1  0
 29 61  1  0
 29 62  1  0
 31 63  1  0
 32 64  1  0
 33 65  1  0
 35 66  1  0
M  CHG  2   2   1   7  -1
M  END
>  <SMILES_raw>  (82) 
CC(C)C[C@@H](C(O)=O)NCC1=CN(C2=CC=CC=C2)N=C1C3=CC=C(OCC4=CC=CC(Cl)=C4)C=C3

>  <Protonation_Method>  (82) 
MolScrub

>  <Target_pH>  (82) 
7.4

$$$$
N-(((3-(4-((3-chlorobenzyl)oxy)phenyl)-1-phenyl-1H-pyrazol-4-yl)methyl)amino)-L-isoleucin
     RDKit          3D

 67 70  0  0  0  0  0  0  0  0999 V2000
   -3.0552   -1.6534   -0.4238 C   0  0  2  0  0  0  0  0  0  0  0  0
   -2.7004   -2.8350   -1.3915 C   0  0  0  0  0  0  0  0  0  0  0  0
   -1.4547   -3.0809   -1.4690 O   0  0  0  0  0  0  0  0  0  0  0  0
   -3.6479   -3.4035   -2.0004 O   0  0  0  0  0  0  0  0  0  0  0  0
   -4.0949   -1.9688    0.6864 C   0  0  2  0  0  0  0  0  0  0  0  0
   -3.5082   -0.4226   -1.1610 N   0  0  0  0  0  0  0  0  0  0  0  0
   -3.6217   -3.0484    1.6872 C   0  0  0  0  0  0  0  0  0  0  0  0
   -5.5185   -2.2325    0.1800 C   0  0  0  0  0  0  0  0  0  0  0  0
   -2.7325   -0.0964   -2.3538 N   0  0  0  0  0  0  0  0  0  0  0  0
   -3.7295   -4.5001    1.2437 C   0  0  0  0  0  0  0  0  0  0  0  0
   -1.3347    0.2764   -2.0834 C   0  0  0  0  0  0  0  0  0  0  0  0
   -1.2283    1.5923   -1.3721 C   0  0  0  0  0  0  0  0  0  0  0  0
   -2.0839    2.6756   -1.4609 C   0  0  0  0  0  0  0  0  0  0  0  0
   -0.1790    2.0534   -0.5210 C   0  0  0  0  0  0  0  0  0  0  0  0
   -1.5492    3.6946   -0.7189 N   0  0  0  0  0  0  0  0  0  0  0  0
   -0.3739    3.3305   -0.1548 N   0  0  0  0  0  0  0  0  0  0  0  0
    1.0246    1.3429   -0.0892 C   0  0  0  0  0  0  0  0  0  0  0  0
   -2.0685    5.0081   -0.5366 C   0  0  0  0  0  0  0  0  0  0  0  0
    2.2780    1.9599   -0.1924 C   0  0  0  0  0  0  0  0  0  0  0  0
    0.9537    0.0445    0.4267 C   0  0  0  0  0  0  0  0  0  0  0  0
   -1.3207    5.9534    0.1849 C   0  0  0  0  0  0  0  0  0  0  0  0
   -3.3095    5.3805   -1.0722 C   0  0  0  0  0  0  0  0  0  0  0  0
    3.4391    1.2698    0.1682 C   0  0  0  0  0  0  0  0  0  0  0  0
    2.1162   -0.6497    0.7788 C   0  0  0  0  0  0  0  0  0  0  0  0
   -1.8025    7.2529    0.3566 C   0  0  0  0  0  0  0  0  0  0  0  0
   -3.7885    6.6819   -0.8912 C   0  0  0  0  0  0  0  0  0  0  0  0
    3.3646   -0.0468    0.6259 C   0  0  0  0  0  0  0  0  0  0  0  0
   -3.0333    7.6184   -0.1844 C   0  0  0  0  0  0  0  0  0  0  0  0
    4.5665   -0.6386    0.9059 O   0  0  0  0  0  0  0  0  0  0  0  0
    4.5739   -2.0647    0.8498 C   0  0  0  0  0  0  0  0  0  0  0  0
    6.0090   -2.5356    0.8142 C   0  0  0  0  0  0  0  0  0  0  0  0
    6.4763   -3.3190   -0.2512 C   0  0  0  0  0  0  0  0  0  0  0  0
    6.8914   -2.2093    1.8558 C   0  0  0  0  0  0  0  0  0  0  0  0
    7.7987   -3.7653   -0.2786 C   0  0  0  0  0  0  0  0  0  0  0  0
    8.2110   -2.6577    1.8230 C   0  0  0  0  0  0  0  0  0  0  0  0
    8.6683   -3.4343    0.7603 C   0  0  0  0  0  0  0  0  0  0  0  0
    9.2859   -2.2529    3.1063 Cl  0  0  0  0  0  0  0  0  0  0  0  0
   -2.1261   -1.3848    0.0955 H   0  0  0  0  0  0  0  0  0  0  0  0
   -4.1681   -1.0501    1.2905 H   0  0  0  0  0  0  0  0  0  0  0  0
   -3.5419    0.3607   -0.5079 H   0  0  0  0  0  0  0  0  0  0  0  0
   -4.2227   -2.9426    2.6008 H   0  0  0  0  0  0  0  0  0  0  0  0
   -2.5861   -2.8429    1.9841 H   0  0  0  0  0  0  0  0  0  0  0  0
   -5.5838   -3.1112   -0.4643 H   0  0  0  0  0  0  0  0  0  0  0  0
   -6.1986   -2.3919    1.0242 H   0  0  0  0  0  0  0  0  0  0  0  0
   -5.9042   -1.3769   -0.3815 H   0  0  0  0  0  0  0  0  0  0  0  0
   -2.7264   -0.9126   -2.9812 H   0  0  0  0  0  0  0  0  0  0  0  0
   -4.7512   -4.7611    0.9577 H   0  0  0  0  0  0  0  0  0  0  0  0
   -3.4509   -5.1586    2.0744 H   0  0  0  0  0  0  0  0  0  0  0  0
   -3.0639   -4.7269    0.4111 H   0  0  0  0  0  0  0  0  0  0  0  0
   -0.8363    0.3938   -3.0533 H   0  0  0  0  0  0  0  0  0  0  0  0
   -0.8003   -0.5208   -1.5684 H   0  0  0  0  0  0  0  0  0  0  0  0
   -3.0037    2.7746   -2.0164 H   0  0  0  0  0  0  0  0  0  0  0  0
    2.3534    2.9774   -0.5691 H   0  0  0  0  0  0  0  0  0  0  0  0
   -0.0063   -0.4505    0.5567 H   0  0  0  0  0  0  0  0  0  0  0  0
   -0.3533    5.6901    0.6098 H   0  0  0  0  0  0  0  0  0  0  0  0
   -3.9280    4.6842   -1.6300 H   0  0  0  0  0  0  0  0  0  0  0  0
    4.4073    1.7537    0.0660 H   0  0  0  0  0  0  0  0  0  0  0  0
    2.0040   -1.6586    1.1633 H   0  0  0  0  0  0  0  0  0  0  0  0
   -1.2116    7.9775    0.9110 H   0  0  0  0  0  0  0  0  0  0  0  0
   -4.7537    6.9646   -1.3057 H   0  0  0  0  0  0  0  0  0  0  0  0
   -3.4085    8.6289   -0.0495 H   0  0  0  0  0  0  0  0  0  0  0  0
    4.0923   -2.4828    1.7408 H   0  0  0  0  0  0  0  0  0  0  0  0
    4.0490   -2.4169   -0.0458 H   0  0  0  0  0  0  0  0  0  0  0  0
    5.8104   -3.5843   -1.0709 H   0  0  0  0  0  0  0  0  0  0  0  0
    6.5436   -1.5996    2.6870 H   0  0  0  0  0  0  0  0  0  0  0  0
    8.1476   -4.3705   -1.1111 H   0  0  0  0  0  0  0  0  0  0  0  0
    9.6964   -3.7815    0.7350 H   0  0  0  0  0  0  0  0  0  0  0  0
  1  2  1  0
  2  3  2  0
  2  4  1  0
  5  1  1  0
  1  6  1  0
  7  5  1  0
  5  8  1  0
  6  9  1  0
 10  7  1  0
  9 11  1  0
 11 12  1  0
 12 13  2  0
 14 12  1  0
 13 15  1  0
 16 14  2  0
 14 17  1  0
 15 18  1  0
 15 16  1  0
 17 19  2  0
 20 17  1  0
 18 21  2  0
 22 18  1  0
 19 23  1  0
 24 20  2  0
 21 25  1  0
 26 22  2  0
 23 27  2  0
 27 24  1  0
 25 28  2  0
 28 26  1  0
 27 29  1  0
 29 30  1  0
 30 31  1  0
 31 32  2  0
 33 31  1  0
 32 34  1  0
 35 33  2  0
 34 36  2  0
 36 35  1  0
 35 37  1  0
  1 38  1  1
  5 39  1  1
  6 40  1  0
  7 41  1  0
  7 42  1  0
  8 43  1  0
  8 44  1  0
  8 45  1  0
  9 46  1  0
 10 47  1  0
 10 48  1  0
 10 49  1  0
 11 50  1  0
 11 51  1  0
 13 52  1  0
 19 53  1  0
 20 54  1  0
 21 55  1  0
 22 56  1  0
 23 57  1  0
 24 58  1  0
 25 59  1  0
 26 60  1  0
 28 61  1  0
 30 62  1  0
 30 63  1  0
 32 64  1  0
 33 65  1  0
 34 66  1  0
 36 67  1  0
M  CHG  1   4  -1
M  END
>  <SMILES_raw>  (83) 
CC[C@H](C)[C@@H](C(O)=O)NNCC1=CN(C2=CC=CC=C2)N=C1C3=CC=C(OCC4=CC=CC(Cl)=C4)C=C3

>  <Protonation_Method>  (83) 
MolScrub

>  <Target_pH>  (83) 
7.4

$$$$
N-((3-(4-((3-chlorobenzyl)oxy)phenyl)-1-phenyl-1H-pyrazol-4-yl)methyl)-L-phenylalanin
     RDKit          3D

 67 71  0  0  0  0  0  0  0  0999 V2000
   -2.4863   -1.8469   -1.5568 C   0  0  2  0  0  0  0  0  0  0  0  0
   -2.4313   -0.4023   -1.0250 N   0  0  0  0  0  0  0  0  0  0  0  0
   -1.6153   -0.1972    0.1868 C   0  0  0  0  0  0  0  0  0  0  0  0
   -1.4980   -1.9692   -2.7541 C   0  0  0  0  0  0  0  0  0  0  0  0
   -3.9001   -2.1470   -2.0602 C   0  0  0  0  0  0  0  0  0  0  0  0
   -1.2996   -3.1069   -3.2265 O   0  0  0  0  0  0  0  0  0  0  0  0
   -1.0132   -0.8186   -3.0214 O   0  0  0  0  0  0  0  0  0  0  0  0
   -4.8381   -2.4595   -0.9138 C   0  0  0  0  0  0  0  0  0  0  0  0
   -5.7466   -1.5161   -0.4173 C   0  0  0  0  0  0  0  0  0  0  0  0
   -4.8078   -3.7455   -0.3434 C   0  0  0  0  0  0  0  0  0  0  0  0
   -6.6044   -1.8524    0.6372 C   0  0  0  0  0  0  0  0  0  0  0  0
   -5.6695   -4.0801    0.7004 C   0  0  0  0  0  0  0  0  0  0  0  0
   -6.5683   -3.1343    1.1900 C   0  0  0  0  0  0  0  0  0  0  0  0
   -1.3161    1.2457    0.3748 C   0  0  0  0  0  0  0  0  0  0  0  0
   -2.2138    2.2749    0.5810 C   0  0  0  0  0  0  0  0  0  0  0  0
   -0.0422    1.8825    0.4017 C   0  0  0  0  0  0  0  0  0  0  0  0
   -1.4878    3.4427    0.7019 N   0  0  0  0  0  0  0  0  0  0  0  0
   -0.1598    3.2024    0.5975 N   0  0  0  0  0  0  0  0  0  0  0  0
    1.2733    1.2575    0.2952 C   0  0  0  0  0  0  0  0  0  0  0  0
   -1.9823    4.7595    0.9172 C   0  0  0  0  0  0  0  0  0  0  0  0
    1.6179    0.4659   -0.8078 C   0  0  0  0  0  0  0  0  0  0  0  0
    2.1907    1.4066    1.3396 C   0  0  0  0  0  0  0  0  0  0  0  0
   -1.0882    5.8426    0.9397 C   0  0  0  0  0  0  0  0  0  0  0  0
   -3.3476    4.9962    1.1102 C   0  0  0  0  0  0  0  0  0  0  0  0
    2.8416   -0.2178   -0.8387 C   0  0  0  0  0  0  0  0  0  0  0  0
    3.4115    0.7283    1.3025 C   0  0  0  0  0  0  0  0  0  0  0  0
   -1.5590    7.1388    1.1605 C   0  0  0  0  0  0  0  0  0  0  0  0
   -3.8122    6.2977    1.3193 C   0  0  0  0  0  0  0  0  0  0  0  0
    3.7357   -0.1016    0.2253 C   0  0  0  0  0  0  0  0  0  0  0  0
   -2.9190    7.3667    1.3386 C   0  0  0  0  0  0  0  0  0  0  0  0
    4.9279   -0.7530    0.3542 O   0  0  0  0  0  0  0  0  0  0  0  0
    5.3890   -1.5192   -0.7571 C   0  0  0  0  0  0  0  0  0  0  0  0
    6.6357   -2.2498   -0.3204 C   0  0  0  0  0  0  0  0  0  0  0  0
    7.8739   -1.9920   -0.9242 C   0  0  0  0  0  0  0  0  0  0  0  0
    6.5680   -3.2027    0.7086 C   0  0  0  0  0  0  0  0  0  0  0  0
    9.0213   -2.6740   -0.5109 C   0  0  0  0  0  0  0  0  0  0  0  0
    7.7178   -3.8776    1.1170 C   0  0  0  0  0  0  0  0  0  0  0  0
    8.9440   -3.6172    0.5131 C   0  0  0  0  0  0  0  0  0  0  0  0
    7.6182   -5.0448    2.3761 Cl  0  0  0  0  0  0  0  0  0  0  0  0
   -2.1757   -2.5086   -0.7362 H   0  0  0  0  0  0  0  0  0  0  0  0
   -1.8805    0.0288   -1.8156 H   0  0  0  0  0  0  0  0  0  0  0  0
   -3.3366    0.0694   -1.0166 H   0  0  0  0  0  0  0  0  0  0  0  0
   -2.1901   -0.5872    1.0326 H   0  0  0  0  0  0  0  0  0  0  0  0
   -0.7109   -0.8004    0.0841 H   0  0  0  0  0  0  0  0  0  0  0  0
   -3.9079   -3.0098   -2.7426 H   0  0  0  0  0  0  0  0  0  0  0  0
   -4.2953   -1.3061   -2.6505 H   0  0  0  0  0  0  0  0  0  0  0  0
   -5.8207   -0.5257   -0.8588 H   0  0  0  0  0  0  0  0  0  0  0  0
   -4.1221   -4.5012   -0.7285 H   0  0  0  0  0  0  0  0  0  0  0  0
   -7.3198   -1.1246    1.0155 H   0  0  0  0  0  0  0  0  0  0  0  0
   -5.6531   -5.0910    1.1081 H   0  0  0  0  0  0  0  0  0  0  0  0
   -7.2553   -3.4117    1.9897 H   0  0  0  0  0  0  0  0  0  0  0  0
   -3.2912    2.2698    0.6476 H   0  0  0  0  0  0  0  0  0  0  0  0
    0.9409    0.3600   -1.6561 H   0  0  0  0  0  0  0  0  0  0  0  0
    1.9536    2.0383    2.1955 H   0  0  0  0  0  0  0  0  0  0  0  0
   -0.0186    5.6941    0.8063 H   0  0  0  0  0  0  0  0  0  0  0  0
   -4.0759    4.1930    1.1428 H   0  0  0  0  0  0  0  0  0  0  0  0
    3.0508   -0.8406   -1.7028 H   0  0  0  0  0  0  0  0  0  0  0  0
    4.1079    0.8349    2.1292 H   0  0  0  0  0  0  0  0  0  0  0  0
   -0.8566    7.9682    1.1874 H   0  0  0  0  0  0  0  0  0  0  0  0
   -4.8725    6.4718    1.4779 H   0  0  0  0  0  0  0  0  0  0  0  0
   -3.2841    8.3749    1.5108 H   0  0  0  0  0  0  0  0  0  0  0  0
    5.6119   -0.8477   -1.5912 H   0  0  0  0  0  0  0  0  0  0  0  0
    4.6521   -2.2644   -1.0699 H   0  0  0  0  0  0  0  0  0  0  0  0
    7.9552   -1.2514   -1.7181 H   0  0  0  0  0  0  0  0  0  0  0  0
    5.6166   -3.4110    1.1947 H   0  0  0  0  0  0  0  0  0  0  0  0
    9.9778   -2.4611   -0.9827 H   0  0  0  0  0  0  0  0  0  0  0  0
    9.8400   -4.1429    0.8370 H   0  0  0  0  0  0  0  0  0  0  0  0
  1  2  1  0
  2  3  1  0
  1  4  1  0
  1  5  1  0
  4  6  2  0
  4  7  1  0
  5  8  1  0
  8  9  2  0
 10  8  1  0
  9 11  1  0
 12 10  2  0
 11 13  2  0
 13 12  1  0
  3 14  1  0
 14 15  2  0
 16 14  1  0
 15 17  1  0
 18 16  2  0
 16 19  1  0
 17 20  1  0
 17 18  1  0
 19 21  2  0
 22 19  1  0
 20 23  2  0
 24 20  1  0
 21 25  1  0
 26 22  2  0
 23 27  1  0
 28 24  2  0
 25 29  2  0
 29 26  1  0
 27 30  2  0
 30 28  1  0
 29 31  1  0
 31 32  1  0
 32 33  1  0
 33 34  2  0
 35 33  1  0
 34 36  1  0
 37 35  2  0
 36 38  2  0
 38 37  1  0
 37 39  1  0
  1 40  1  1
  2 41  1  0
  2 42  1  0
  3 43  1  0
  3 44  1  0
  5 45  1  0
  5 46  1  0
  9 47  1  0
 10 48  1  0
 11 49  1  0
 12 50  1  0
 13 51  1  0
 15 52  1  0
 21 53  1  0
 22 54  1  0
 23 55  1  0
 24 56  1  0
 25 57  1  0
 26 58  1  0
 27 59  1  0
 28 60  1  0
 30 61  1  0
 32 62  1  0
 32 63  1  0
 34 64  1  0
 35 65  1  0
 36 66  1  0
 38 67  1  0
M  CHG  2   2   1   7  -1
M  END
>  <SMILES_raw>  (84) 
O=C(O)[C@H](CC1=CC=CC=C1)NCC2=CN(C3=CC=CC=C3)N=C2C4=CC=C(OCC5=CC=CC(Cl)=C5)C=C4

>  <Protonation_Method>  (84) 
MolScrub

>  <Target_pH>  (84) 
7.4

$$$$
N-((3-(4-((3-chlorobenzyl)oxy)phenyl)-1-phenyl-1H-pyrazol-4-yl)methyl)-L-tyrosin
     RDKit          3D

 68 72  0  0  0  0  0  0  0  0999 V2000
   -2.8762    0.0800    1.7953 C   0  0  2  0  0  0  0  0  0  0  0  0
   -1.8390   -0.6788    0.9478 N   0  0  0  0  0  0  0  0  0  0  0  0
   -1.8199   -0.4479   -0.5024 C   0  0  0  0  0  0  0  0  0  0  0  0
   -2.1446    0.7535    2.9918 C   0  0  0  0  0  0  0  0  0  0  0  0
   -3.9238   -0.8853    2.3571 C   0  0  0  0  0  0  0  0  0  0  0  0
   -2.8400    1.3670    3.8285 O   0  0  0  0  0  0  0  0  0  0  0  0
   -0.8897    0.5445    2.8979 O   0  0  0  0  0  0  0  0  0  0  0  0
   -4.6349   -1.6800    1.2840 C   0  0  0  0  0  0  0  0  0  0  0  0
   -5.5097   -1.0413    0.3928 C   0  0  0  0  0  0  0  0  0  0  0  0
   -4.4231   -3.0619    1.1614 C   0  0  0  0  0  0  0  0  0  0  0  0
   -6.1384   -1.7678   -0.6183 C   0  0  0  0  0  0  0  0  0  0  0  0
   -5.0573   -3.7893    0.1512 C   0  0  0  0  0  0  0  0  0  0  0  0
   -5.9073   -3.1337   -0.7325 C   0  0  0  0  0  0  0  0  0  0  0  0
   -6.5494   -3.8040   -1.7311 O   0  0  0  0  0  0  0  0  0  0  0  0
   -1.3923    0.9104   -0.9131 C   0  0  0  0  0  0  0  0  0  0  0  0
   -2.1800    1.9813   -1.2890 C   0  0  0  0  0  0  0  0  0  0  0  0
   -0.0649    1.3994   -1.0348 C   0  0  0  0  0  0  0  0  0  0  0  0
   -1.3371    3.0260   -1.6097 N   0  0  0  0  0  0  0  0  0  0  0  0
   -0.0406    2.6527   -1.4924 N   0  0  0  0  0  0  0  0  0  0  0  0
    1.1659    0.6860   -0.7401 C   0  0  0  0  0  0  0  0  0  0  0  0
   -1.6858    4.3371   -2.0400 C   0  0  0  0  0  0  0  0  0  0  0  0
    1.6516    0.6405    0.5705 C   0  0  0  0  0  0  0  0  0  0  0  0
    1.8506    0.0135   -1.7546 C   0  0  0  0  0  0  0  0  0  0  0  0
   -0.6676    5.2572   -2.3368 C   0  0  0  0  0  0  0  0  0  0  0  0
   -3.0253    4.7302   -2.1709 C   0  0  0  0  0  0  0  0  0  0  0  0
    2.8074   -0.0882    0.8715 C   0  0  0  0  0  0  0  0  0  0  0  0
    3.0046   -0.7130   -1.4500 C   0  0  0  0  0  0  0  0  0  0  0  0
   -0.9857    6.5493   -2.7601 C   0  0  0  0  0  0  0  0  0  0  0  0
   -3.3354    6.0259   -2.5962 C   0  0  0  0  0  0  0  0  0  0  0  0
    3.4892   -0.7672   -0.1390 C   0  0  0  0  0  0  0  0  0  0  0  0
   -2.3185    6.9327   -2.8897 C   0  0  0  0  0  0  0  0  0  0  0  0
    4.6216   -1.5167    0.0198 O   0  0  0  0  0  0  0  0  0  0  0  0
    5.2863   -1.4203    1.2802 C   0  0  0  0  0  0  0  0  0  0  0  0
    6.5613   -2.2313    1.2262 C   0  0  0  0  0  0  0  0  0  0  0  0
    6.5464   -3.5624    0.7779 C   0  0  0  0  0  0  0  0  0  0  0  0
    7.7745   -1.6785    1.6640 C   0  0  0  0  0  0  0  0  0  0  0  0
    7.7198   -4.3192    0.7513 C   0  0  0  0  0  0  0  0  0  0  0  0
    8.9436   -2.4401    1.6358 C   0  0  0  0  0  0  0  0  0  0  0  0
    8.9212   -3.7569    1.1804 C   0  0  0  0  0  0  0  0  0  0  0  0
   10.4259   -1.7478    2.1717 Cl  0  0  0  0  0  0  0  0  0  0  0  0
   -3.3229    0.8547    1.1645 H   0  0  0  0  0  0  0  0  0  0  0  0
   -1.8389   -1.6685    1.1976 H   0  0  0  0  0  0  0  0  0  0  0  0
   -0.9564   -0.3161    1.3890 H   0  0  0  0  0  0  0  0  0  0  0  0
   -1.1374   -1.1977   -0.9183 H   0  0  0  0  0  0  0  0  0  0  0  0
   -2.8182   -0.6800   -0.8865 H   0  0  0  0  0  0  0  0  0  0  0  0
   -3.4568   -1.5711    3.0773 H   0  0  0  0  0  0  0  0  0  0  0  0
   -4.6815   -0.3334    2.9292 H   0  0  0  0  0  0  0  0  0  0  0  0
   -5.7186    0.0228    0.4857 H   0  0  0  0  0  0  0  0  0  0  0  0
   -3.7765   -3.5881    1.8612 H   0  0  0  0  0  0  0  0  0  0  0  0
   -6.8208   -1.2744   -1.3057 H   0  0  0  0  0  0  0  0  0  0  0  0
   -4.8865   -4.8597    0.0768 H   0  0  0  0  0  0  0  0  0  0  0  0
   -6.3805   -4.7554   -1.6336 H   0  0  0  0  0  0  0  0  0  0  0  0
   -3.2528    2.0785   -1.3513 H   0  0  0  0  0  0  0  0  0  0  0  0
    1.1406    1.1775    1.3712 H   0  0  0  0  0  0  0  0  0  0  0  0
    1.5024    0.0626   -2.7840 H   0  0  0  0  0  0  0  0  0  0  0  0
    0.3820    4.9837   -2.2385 H   0  0  0  0  0  0  0  0  0  0  0  0
   -3.8517    4.0633   -1.9489 H   0  0  0  0  0  0  0  0  0  0  0  0
    3.1402   -0.0975    1.9051 H   0  0  0  0  0  0  0  0  0  0  0  0
    3.5419   -1.2284   -2.2436 H   0  0  0  0  0  0  0  0  0  0  0  0
   -0.1908    7.2564   -2.9841 H   0  0  0  0  0  0  0  0  0  0  0  0
   -4.3745    6.3314   -2.6939 H   0  0  0  0  0  0  0  0  0  0  0  0
   -2.5645    7.9403   -3.2154 H   0  0  0  0  0  0  0  0  0  0  0  0
    5.5258   -0.3706    1.4893 H   0  0  0  0  0  0  0  0  0  0  0  0
    4.6575   -1.8250    2.0822 H   0  0  0  0  0  0  0  0  0  0  0  0
    5.6150   -4.0132    0.4392 H   0  0  0  0  0  0  0  0  0  0  0  0
    7.8117   -0.6527    2.0248 H   0  0  0  0  0  0  0  0  0  0  0  0
    7.6964   -5.3465    0.3957 H   0  0  0  0  0  0  0  0  0  0  0  0
    9.8325   -4.3484    1.1583 H   0  0  0  0  0  0  0  0  0  0  0  0
  1  2  1  0
  2  3  1  0
  1  4  1  0
  5  1  1  0
  4  6  2  0
  4  7  1  0
  8  5  1  0
  9  8  2  0
  8 10  1  0
 11  9  1  0
 10 12  2  0
 13 11  2  0
 12 13  1  0
 14 13  1  0
  3 15  1  0
 15 16  2  0
 17 15  1  0
 16 18  1  0
 19 17  2  0
 17 20  1  0
 18 21  1  0
 18 19  1  0
 20 22  2  0
 23 20  1  0
 21 24  2  0
 25 21  1  0
 22 26  1  0
 27 23  2  0
 24 28  1  0
 29 25  2  0
 26 30  2  0
 30 27  1  0
 28 31  2  0
 31 29  1  0
 30 32  1  0
 32 33  1  0
 33 34  1  0
 34 35  2  0
 36 34  1  0
 35 37  1  0
 38 36  2  0
 37 39  2  0
 39 38  1  0
 38 40  1  0
  1 41  1  6
  2 42  1  0
  2 43  1  0
  3 44  1  0
  3 45  1  0
  5 46  1  0
  5 47  1  0
  9 48  1  0
 10 49  1  0
 11 50  1  0
 12 51  1  0
 14 52  1  0
 16 53  1  0
 22 54  1  0
 23 55  1  0
 24 56  1  0
 25 57  1  0
 26 58  1  0
 27 59  1  0
 28 60  1  0
 29 61  1  0
 31 62  1  0
 33 63  1  0
 33 64  1  0
 35 65  1  0
 36 66  1  0
 37 67  1  0
 39 68  1  0
M  CHG  2   2   1   7  -1
M  END
>  <SMILES_raw>  (85) 
OC1=CC=C(C=C1)C[C@@H](C(O)=O)NCC2=CN(C3=CC=CC=C3)N=C2C4=CC=C(OCC5=CC=CC(Cl)=C5)C=C4

>  <Protonation_Method>  (85) 
MolScrub

>  <Target_pH>  (85) 
7.4

$$$$
N-((3-(4-((3-chlorobenzyl)oxy)phenyl)-1(3-nitrophenyl)-1H-pyrazol-4-yl)methyl)-L-methionin
     RDKit          3D

 66 69  0  0  0  0  0  0  0  0999 V2000
   -3.4379    2.7205    1.1968 C   0  0  2  0  0  0  0  0  0  0  0  0
   -2.7214    1.4490    0.7492 N   0  0  0  0  0  0  0  0  0  0  0  0
   -2.0312    0.7450    1.8558 C   0  0  0  0  0  0  0  0  0  0  0  0
   -4.8219    2.3325    1.8125 C   0  0  0  0  0  0  0  0  0  0  0  0
   -3.7555    3.6171   -0.0031 C   0  0  0  0  0  0  0  0  0  0  0  0
   -5.1584    1.1679    1.4207 O   0  0  0  0  0  0  0  0  0  0  0  0
   -5.3084    3.1453    2.6285 O   0  0  0  0  0  0  0  0  0  0  0  0
   -2.5704    4.0589   -0.8643 C   0  0  0  0  0  0  0  0  0  0  0  0
   -1.1515    4.7289    0.0625 S   0  0  0  0  0  0  0  0  0  0  0  0
   -1.8997    6.2656    0.6681 C   0  0  0  0  0  0  0  0  0  0  0  0
   -1.6233   -0.6157    1.4230 C   0  0  0  0  0  0  0  0  0  0  0  0
   -2.4051   -1.7553    1.4442 C   0  0  0  0  0  0  0  0  0  0  0  0
   -0.3928   -1.0432    0.8525 C   0  0  0  0  0  0  0  0  0  0  0  0
   -1.6625   -2.7765    0.9010 N   0  0  0  0  0  0  0  0  0  0  0  0
   -0.4581   -2.3267    0.4807 N   0  0  0  0  0  0  0  0  0  0  0  0
    0.8164   -0.2642    0.6064 C   0  0  0  0  0  0  0  0  0  0  0  0
   -2.0327   -4.1418    0.7377 C   0  0  0  0  0  0  0  0  0  0  0  0
    1.4001   -0.2536   -0.6659 C   0  0  0  0  0  0  0  0  0  0  0  0
    1.4213    0.4638    1.6367 C   0  0  0  0  0  0  0  0  0  0  0  0
   -1.1704   -5.0086    0.0440 C   0  0  0  0  0  0  0  0  0  0  0  0
   -3.2256   -4.6409    1.2741 C   0  0  0  0  0  0  0  0  0  0  0  0
    2.5630    0.4872   -0.9131 C   0  0  0  0  0  0  0  0  0  0  0  0
    2.5837    1.1998    1.3877 C   0  0  0  0  0  0  0  0  0  0  0  0
   -1.5077   -6.3525   -0.1360 C   0  0  0  0  0  0  0  0  0  0  0  0
   -3.5487   -5.9950    1.0946 C   0  0  0  0  0  0  0  0  0  0  0  0
    3.1579    1.2192    0.1138 C   0  0  0  0  0  0  0  0  0  0  0  0
   -2.7008   -6.8496    0.3848 C   0  0  0  0  0  0  0  0  0  0  0  0
   -4.8012   -6.5229    1.6564 N   0  0  0  0  0  0  0  0  0  0  0  0
    4.3068    1.9543    0.0249 O   0  0  0  0  0  0  0  0  0  0  0  0
   -5.1372   -7.6737    1.3426 O   0  0  0  0  0  0  0  0  0  0  0  0
   -5.4495   -5.7820    2.4094 O   0  0  0  0  0  0  0  0  0  0  0  0
    4.8572    2.2104   -1.2702 C   0  0  0  0  0  0  0  0  0  0  0  0
    5.7394    1.1010   -1.8023 C   0  0  0  0  0  0  0  0  0  0  0  0
    6.3181    0.1399   -0.9629 C   0  0  0  0  0  0  0  0  0  0  0  0
    6.0267    1.0561   -3.1756 C   0  0  0  0  0  0  0  0  0  0  0  0
    7.1342   -0.8654   -1.4873 C   0  0  0  0  0  0  0  0  0  0  0  0
    6.8456    0.0521   -3.6932 C   0  0  0  0  0  0  0  0  0  0  0  0
    7.3955   -0.9116   -2.8547 C   0  0  0  0  0  0  0  0  0  0  0  0
    7.1734   -0.0014   -5.3807 Cl  0  0  0  0  0  0  0  0  0  0  0  0
   -2.8052    3.2163    1.9374 H   0  0  0  0  0  0  0  0  0  0  0  0
   -2.1384    1.5443   -0.0825 H   0  0  0  0  0  0  0  0  0  0  0  0
   -3.5494    0.8514    0.5220 H   0  0  0  0  0  0  0  0  0  0  0  0
   -2.7219    0.6863    2.7063 H   0  0  0  0  0  0  0  0  0  0  0  0
   -1.1805    1.3651    2.1492 H   0  0  0  0  0  0  0  0  0  0  0  0
   -4.4795    3.1162   -0.6646 H   0  0  0  0  0  0  0  0  0  0  0  0
   -4.2736    4.5123    0.3593 H   0  0  0  0  0  0  0  0  0  0  0  0
   -2.8979    4.8110   -1.5899 H   0  0  0  0  0  0  0  0  0  0  0  0
   -2.2017    3.2118   -1.4512 H   0  0  0  0  0  0  0  0  0  0  0  0
   -2.3696    6.8175   -0.1507 H   0  0  0  0  0  0  0  0  0  0  0  0
   -1.1210    6.8979    1.1069 H   0  0  0  0  0  0  0  0  0  0  0  0
   -2.6426    6.0620    1.4421 H   0  0  0  0  0  0  0  0  0  0  0  0
   -3.4214   -1.8979    1.7852 H   0  0  0  0  0  0  0  0  0  0  0  0
    0.9637   -0.8381   -1.4743 H   0  0  0  0  0  0  0  0  0  0  0  0
    1.0210    0.4458    2.6459 H   0  0  0  0  0  0  0  0  0  0  0  0
   -0.2234   -4.6467   -0.3623 H   0  0  0  0  0  0  0  0  0  0  0  0
   -3.8910   -4.0101    1.8497 H   0  0  0  0  0  0  0  0  0  0  0  0
    2.9884    0.4445   -1.9100 H   0  0  0  0  0  0  0  0  0  0  0  0
    3.0581    1.7536    2.1973 H   0  0  0  0  0  0  0  0  0  0  0  0
   -0.8296   -7.0142   -0.6709 H   0  0  0  0  0  0  0  0  0  0  0  0
   -2.9434   -7.8997    0.2449 H   0  0  0  0  0  0  0  0  0  0  0  0
    4.0652    2.4740   -1.9844 H   0  0  0  0  0  0  0  0  0  0  0  0
    5.4858    3.1025   -1.1636 H   0  0  0  0  0  0  0  0  0  0  0  0
    6.1311    0.1621    0.1095 H   0  0  0  0  0  0  0  0  0  0  0  0
    5.6118    1.8090   -3.8404 H   0  0  0  0  0  0  0  0  0  0  0  0
    7.5677   -1.6133   -0.8262 H   0  0  0  0  0  0  0  0  0  0  0  0
    8.0300   -1.6975   -3.2556 H   0  0  0  0  0  0  0  0  0  0  0  0
  1  2  1  0
  2  3  1  0
  1  4  1  0
  5  1  1  0
  4  6  2  0
  4  7  1  0
  8  5  1  0
  9  8  1  0
 10  9  1  0
  3 11  1  0
 11 12  2  0
 13 11  1  0
 12 14  1  0
 15 13  2  0
 13 16  1  0
 14 17  1  0
 14 15  1  0
 16 18  2  0
 19 16  1  0
 17 20  2  0
 21 17  1  0
 18 22  1  0
 23 19  2  0
 20 24  1  0
 25 21  2  0
 22 26  2  0
 26 23  1  0
 24 27  2  0
 27 25  1  0
 25 28  1  0
 26 29  1  0
 28 30  1  0
 28 31  2  0
 29 32  1  0
 32 33  1  0
 33 34  2  0
 35 33  1  0
 34 36  1  0
 37 35  2  0
 36 38  2  0
 38 37  1  0
 37 39  1  0
  1 40  1  1
  2 41  1  0
  2 42  1  0
  3 43  1  0
  3 44  1  0
  5 45  1  0
  5 46  1  0
  8 47  1  0
  8 48  1  0
 10 49  1  0
 10 50  1  0
 10 51  1  0
 12 52  1  0
 18 53  1  0
 19 54  1  0
 20 55  1  0
 21 56  1  0
 22 57  1  0
 23 58  1  0
 24 59  1  0
 27 60  1  0
 32 61  1  0
 32 62  1  0
 34 63  1  0
 35 64  1  0
 36 65  1  0
 38 66  1  0
M  CHG  4   2   1   7  -1  28   1  30  -1
M  END
>  <SMILES_raw>  (86) 
CSCC[C@@H](C(O)=O)NCC1=CN(C2=CC=CC([N+]([O-])=O)=C2)N=C1C3=CC=C(OCC4=CC=CC(Cl)=C4)C=C3

>  <Protonation_Method>  (86) 
MolScrub

>  <Target_pH>  (86) 
7.4

$$$$
((3-(2-(benzyloxy)phenyl)1-(4-bromophenyl)-1Hpyrazol-4-yl)methyl)-L-alanin
     RDKit          3D

 57 60  0  0  0  0  0  0  0  0999 V2000
   -2.6515   -3.1371    1.5202 C   0  0  2  0  0  0  0  0  0  0  0  0
   -1.9945   -1.8855    0.9390 N   0  0  0  0  0  0  0  0  0  0  0  0
   -1.9981   -0.6856    1.7799 C   0  0  0  0  0  0  0  0  0  0  0  0
   -1.8140   -4.4013    1.1649 C   0  0  0  0  0  0  0  0  0  0  0  0
   -4.0787   -3.2116    1.0106 C   0  0  0  0  0  0  0  0  0  0  0  0
   -0.6671   -4.0607    0.7307 O   0  0  0  0  0  0  0  0  0  0  0  0
   -2.3511   -5.5173    1.3331 O   0  0  0  0  0  0  0  0  0  0  0  0
   -1.5540    0.5202    1.0405 C   0  0  0  0  0  0  0  0  0  0  0  0
   -2.3115    1.3513    0.2372 C   0  0  0  0  0  0  0  0  0  0  0  0
   -0.2540    1.0953    1.0142 C   0  0  0  0  0  0  0  0  0  0  0  0
   -1.4851    2.3623   -0.2057 N   0  0  0  0  0  0  0  0  0  0  0  0
   -0.2391    2.2267    0.3011 N   0  0  0  0  0  0  0  0  0  0  0  0
    0.9543    0.6049    1.6718 C   0  0  0  0  0  0  0  0  0  0  0  0
   -1.8071    3.4475   -1.0693 C   0  0  0  0  0  0  0  0  0  0  0  0
    1.5796    1.4148    2.6313 C   0  0  0  0  0  0  0  0  0  0  0  0
    1.4948   -0.6579    1.3587 C   0  0  0  0  0  0  0  0  0  0  0  0
   -3.0952    3.5990   -1.6027 C   0  0  0  0  0  0  0  0  0  0  0  0
   -0.8117    4.3831   -1.3976 C   0  0  0  0  0  0  0  0  0  0  0  0
    2.7136    0.9612    3.3026 C   0  0  0  0  0  0  0  0  0  0  0  0
    2.6210   -1.1097    2.0523 C   0  0  0  0  0  0  0  0  0  0  0  0
    0.8541   -1.3753    0.3778 O   0  0  0  0  0  0  0  0  0  0  0  0
   -3.3793    4.6741   -2.4526 C   0  0  0  0  0  0  0  0  0  0  0  0
   -1.1005    5.4552   -2.2466 C   0  0  0  0  0  0  0  0  0  0  0  0
    3.2267   -0.3018    3.0189 C   0  0  0  0  0  0  0  0  0  0  0  0
    1.6165   -2.3525   -0.3541 C   0  0  0  0  0  0  0  0  0  0  0  0
   -2.3826    5.5952   -2.7703 C   0  0  0  0  0  0  0  0  0  0  0  0
    2.7058   -1.7563   -1.2209 C   0  0  0  0  0  0  0  0  0  0  0  0
   -2.7755    7.0432   -3.9196 Br  0  0  0  0  0  0  0  0  0  0  0  0
    3.9020   -2.4610   -1.4196 C   0  0  0  0  0  0  0  0  0  0  0  0
    2.5254   -0.5315   -1.8811 C   0  0  0  0  0  0  0  0  0  0  0  0
    4.9059   -1.9387   -2.2372 C   0  0  0  0  0  0  0  0  0  0  0  0
    3.5311   -0.0099   -2.6963 C   0  0  0  0  0  0  0  0  0  0  0  0
    4.7214   -0.7125   -2.8726 C   0  0  0  0  0  0  0  0  0  0  0  0
   -2.6305   -3.0269    2.6110 H   0  0  0  0  0  0  0  0  0  0  0  0
   -1.0058   -2.2185    0.8078 H   0  0  0  0  0  0  0  0  0  0  0  0
   -2.2970   -1.7293   -0.0251 H   0  0  0  0  0  0  0  0  0  0  0  0
   -1.3690   -0.8901    2.6524 H   0  0  0  0  0  0  0  0  0  0  0  0
   -3.0257   -0.5403    2.1323 H   0  0  0  0  0  0  0  0  0  0  0  0
   -4.6336   -2.2971    1.2447 H   0  0  0  0  0  0  0  0  0  0  0  0
   -4.1057   -3.3591   -0.0749 H   0  0  0  0  0  0  0  0  0  0  0  0
   -4.6135   -4.0503    1.4691 H   0  0  0  0  0  0  0  0  0  0  0  0
   -3.3549    1.3079   -0.0356 H   0  0  0  0  0  0  0  0  0  0  0  0
    1.1860    2.4045    2.8533 H   0  0  0  0  0  0  0  0  0  0  0  0
   -3.9007    2.9055   -1.3844 H   0  0  0  0  0  0  0  0  0  0  0  0
    0.1985    4.2906   -1.0005 H   0  0  0  0  0  0  0  0  0  0  0  0
    3.1976    1.5922    4.0438 H   0  0  0  0  0  0  0  0  0  0  0  0
    3.0553   -2.0864    1.8644 H   0  0  0  0  0  0  0  0  0  0  0  0
   -4.3803    4.7833   -2.8632 H   0  0  0  0  0  0  0  0  0  0  0  0
   -0.3183    6.1695   -2.4911 H   0  0  0  0  0  0  0  0  0  0  0  0
    4.1098   -0.6593    3.5439 H   0  0  0  0  0  0  0  0  0  0  0  0
    1.9943   -3.1287    0.3208 H   0  0  0  0  0  0  0  0  0  0  0  0
    0.9127   -2.8499   -1.0318 H   0  0  0  0  0  0  0  0  0  0  0  0
    4.0584   -3.4243   -0.9387 H   0  0  0  0  0  0  0  0  0  0  0  0
    1.6022    0.0304   -1.7554 H   0  0  0  0  0  0  0  0  0  0  0  0
    5.8310   -2.4910   -2.3804 H   0  0  0  0  0  0  0  0  0  0  0  0
    3.3843    0.9455   -3.1930 H   0  0  0  0  0  0  0  0  0  0  0  0
    5.5036   -0.3060   -3.5079 H   0  0  0  0  0  0  0  0  0  0  0  0
  1  2  1  0
  2  3  1  0
  1  4  1  0
  5  1  1  0
  4  6  2  0
  4  7  1  0
  3  8  1  0
  8  9  2  0
 10  8  1  0
  9 11  1  0
 12 10  2  0
 10 13  1  0
 11 14  1  0
 11 12  1  0
 13 15  2  0
 16 13  1  0
 14 17  2  0
 18 14  1  0
 15 19  1  0
 20 16  2  0
 16 21  1  0
 17 22  1  0
 23 18  2  0
 19 24  2  0
 24 20  1  0
 21 25  1  0
 22 26  2  0
 26 23  1  0
 25 27  1  0
 26 28  1  0
 27 29  2  0
 30 27  1  0
 29 31  1  0
 32 30  2  0
 31 33  2  0
 33 32  1  0
  1 34  1  1
  2 35  1  0
  2 36  1  0
  3 37  1  0
  3 38  1  0
  5 39  1  0
  5 40  1  0
  5 41  1  0
  9 42  1  0
 15 43  1  0
 17 44  1  0
 18 45  1  0
 19 46  1  0
 20 47  1  0
 22 48  1  0
 23 49  1  0
 24 50  1  0
 25 51  1  0
 25 52  1  0
 29 53  1  0
 30 54  1  0
 31 55  1  0
 32 56  1  0
 33 57  1  0
M  CHG  2   2   1   7  -1
M  END
>  <SMILES_raw>  (87) 
C[C@@H](C(O)=O)NCC1=CN(C2=CC=C(Br)C=C2)N=C1C3=CC=CC=C3OCC4=CC=CC=C4

>  <Protonation_Method>  (87) 
MolScrub

>  <Target_pH>  (87) 
7.4

$$$$
N-((3-(2-(benzyloxy)phenyl)1-(4-bromophenyl)-1H-pyrazol-4-yl)methyl)-L-methionin
     RDKit          3D

 64 67  0  0  0  0  0  0  0  0999 V2000
   -1.9193   -1.6290    0.8089 C   0  0  2  0  0  0  0  0  0  0  0  0
   -0.7209   -1.2023   -0.0577 N   0  0  0  0  0  0  0  0  0  0  0  0
   -0.9914   -0.3307   -1.2213 C   0  0  0  0  0  0  0  0  0  0  0  0
   -1.8595   -0.8836    2.1771 C   0  0  0  0  0  0  0  0  0  0  0  0
   -1.8931   -3.1511    0.9199 C   0  0  0  0  0  0  0  0  0  0  0  0
   -0.7467   -0.2782    2.3027 O   0  0  0  0  0  0  0  0  0  0  0  0
   -2.8928   -0.9008    2.8805 O   0  0  0  0  0  0  0  0  0  0  0  0
   -3.0340   -3.6994    1.7812 C   0  0  0  0  0  0  0  0  0  0  0  0
   -3.3211   -5.4721    1.4159 S   0  0  0  0  0  0  0  0  0  0  0  0
   -4.4415   -5.2909   -0.0000 C   0  0  0  0  0  0  0  0  0  0  0  0
   -0.6692    1.0927   -0.9583 C   0  0  0  0  0  0  0  0  0  0  0  0
   -1.3235    1.9414   -0.0840 C   0  0  0  0  0  0  0  0  0  0  0  0
    0.3621    1.8963   -1.5243 C   0  0  0  0  0  0  0  0  0  0  0  0
   -0.6904    3.1605   -0.1368 N   0  0  0  0  0  0  0  0  0  0  0  0
    0.2904    3.1539   -1.0701 N   0  0  0  0  0  0  0  0  0  0  0  0
    1.3988    1.5339   -2.4929 C   0  0  0  0  0  0  0  0  0  0  0  0
   -0.9674    4.3333    0.6205 C   0  0  0  0  0  0  0  0  0  0  0  0
    1.6277    2.3785   -3.5906 C   0  0  0  0  0  0  0  0  0  0  0  0
    2.1775    0.3728   -2.3735 C   0  0  0  0  0  0  0  0  0  0  0  0
   -1.9230    4.3281    1.6482 C   0  0  0  0  0  0  0  0  0  0  0  0
   -0.2561    5.5153    0.3433 C   0  0  0  0  0  0  0  0  0  0  0  0
    2.5743    2.0462   -4.5650 C   0  0  0  0  0  0  0  0  0  0  0  0
    3.1075    0.0298   -3.3601 C   0  0  0  0  0  0  0  0  0  0  0  0
    1.9889   -0.5247   -1.3548 O   0  0  0  0  0  0  0  0  0  0  0  0
   -2.1651    5.4939    2.3826 C   0  0  0  0  0  0  0  0  0  0  0  0
   -0.5029    6.6776    1.0788 C   0  0  0  0  0  0  0  0  0  0  0  0
    3.3017    0.8659   -4.4600 C   0  0  0  0  0  0  0  0  0  0  0  0
    2.8889   -0.2525   -0.2665 C   0  0  0  0  0  0  0  0  0  0  0  0
   -1.4569    6.6606    2.0947 C   0  0  0  0  0  0  0  0  0  0  0  0
    2.9103   -1.4974    0.5876 C   0  0  0  0  0  0  0  0  0  0  0  0
   -1.7794    8.2283    3.0967 Br  0  0  0  0  0  0  0  0  0  0  0  0
    2.2728   -1.5291    1.8337 C   0  0  0  0  0  0  0  0  0  0  0  0
    3.5587   -2.6546    0.1265 C   0  0  0  0  0  0  0  0  0  0  0  0
    2.2744   -2.6988    2.6008 C   0  0  0  0  0  0  0  0  0  0  0  0
    3.5668   -3.8198    0.8973 C   0  0  0  0  0  0  0  0  0  0  0  0
    2.9209   -3.8437    2.1314 C   0  0  0  0  0  0  0  0  0  0  0  0
   -2.8286   -1.3025    0.2888 H   0  0  0  0  0  0  0  0  0  0  0  0
   -0.0470   -1.9520   -0.2463 H   0  0  0  0  0  0  0  0  0  0  0  0
   -0.2132   -0.6205    0.6553 H   0  0  0  0  0  0  0  0  0  0  0  0
   -2.0445   -0.4393   -1.4981 H   0  0  0  0  0  0  0  0  0  0  0  0
   -0.4244   -0.7396   -2.0626 H   0  0  0  0  0  0  0  0  0  0  0  0
   -1.9529   -3.5553   -0.0986 H   0  0  0  0  0  0  0  0  0  0  0  0
   -0.9331   -3.4859    1.3410 H   0  0  0  0  0  0  0  0  0  0  0  0
   -3.9681   -3.1440    1.6260 H   0  0  0  0  0  0  0  0  0  0  0  0
   -2.7704   -3.6228    2.8428 H   0  0  0  0  0  0  0  0  0  0  0  0
   -5.3525   -4.7637    0.2967 H   0  0  0  0  0  0  0  0  0  0  0  0
   -3.9502   -4.7467   -0.8127 H   0  0  0  0  0  0  0  0  0  0  0  0
   -4.7198   -6.2839   -0.3684 H   0  0  0  0  0  0  0  0  0  0  0  0
   -2.1583    1.7656    0.5801 H   0  0  0  0  0  0  0  0  0  0  0  0
    1.0482    3.2961   -3.7062 H   0  0  0  0  0  0  0  0  0  0  0  0
   -2.4795    3.4340    1.9246 H   0  0  0  0  0  0  0  0  0  0  0  0
    0.4970    5.5403   -0.4437 H   0  0  0  0  0  0  0  0  0  0  0  0
    2.7155    2.6871   -5.4374 H   0  0  0  0  0  0  0  0  0  0  0  0
    3.6527   -0.9034   -3.2948 H   0  0  0  0  0  0  0  0  0  0  0  0
   -2.8975    5.4721    3.1882 H   0  0  0  0  0  0  0  0  0  0  0  0
    0.0584    7.5841    0.8622 H   0  0  0  0  0  0  0  0  0  0  0  0
    4.0191    0.5978   -5.2349 H   0  0  0  0  0  0  0  0  0  0  0  0
    3.9098   -0.0309   -0.6107 H   0  0  0  0  0  0  0  0  0  0  0  0
    2.5184    0.6053    0.3152 H   0  0  0  0  0  0  0  0  0  0  0  0
    1.7719   -0.6405    2.2259 H   0  0  0  0  0  0  0  0  0  0  0  0
    4.0729   -2.6402   -0.8347 H   0  0  0  0  0  0  0  0  0  0  0  0
    1.7843   -2.7051    3.5700 H   0  0  0  0  0  0  0  0  0  0  0  0
    4.0865   -4.7067    0.5370 H   0  0  0  0  0  0  0  0  0  0  0  0
    2.9374   -4.7498    2.7341 H   0  0  0  0  0  0  0  0  0  0  0  0
  1  2  1  0
  2  3  1  0
  1  4  1  0
  5  1  1  0
  4  6  2  0
  4  7  1  0
  8  5  1  0
  9  8  1  0
 10  9  1  0
  3 11  1  0
 11 12  2  0
 13 11  1  0
 12 14  1  0
 15 13  2  0
 13 16  1  0
 14 17  1  0
 14 15  1  0
 16 18  2  0
 19 16  1  0
 17 20  2  0
 21 17  1  0
 18 22  1  0
 23 19  2  0
 19 24  1  0
 20 25  1  0
 26 21  2  0
 22 27  2  0
 27 23  1  0
 24 28  1  0
 25 29  2  0
 29 26  1  0
 28 30  1  0
 29 31  1  0
 30 32  2  0
 33 30  1  0
 32 34  1  0
 35 33  2  0
 34 36  2  0
 36 35  1  0
  1 37  1  6
  2 38  1  0
  2 39  1  0
  3 40  1  0
  3 41  1  0
  5 42  1  0
  5 43  1  0
  8 44  1  0
  8 45  1  0
 10 46  1  0
 10 47  1  0
 10 48  1  0
 12 49  1  0
 18 50  1  0
 20 51  1  0
 21 52  1  0
 22 53  1  0
 23 54  1  0
 25 55  1  0
 26 56  1  0
 27 57  1  0
 28 58  1  0
 28 59  1  0
 32 60  1  0
 33 61  1  0
 34 62  1  0
 35 63  1  0
 36 64  1  0
M  CHG  2   2   1   7  -1
M  END
>  <SMILES_raw>  (88) 
CSCC[C@@H](C(O)=O)NCC1=CN(C2=CC=C(Br)C=C2)N=C1C3=CC=CC=C3OCC4=CC=CC=C4

>  <Protonation_Method>  (88) 
MolScrub

>  <Target_pH>  (88) 
7.4

$$$$
N-((3-(2-(benzyloxy)phenyl)1-(4-bromophenyl)-1H-pyrazol-4-yl)methyl)-L-leucin
     RDKit          3D

 66 69  0  0  0  0  0  0  0  0999 V2000
   -3.7616    0.9718    0.6752 C   0  0  2  0  0  0  0  0  0  0  0  0
   -2.5823    0.0326    0.9911 N   0  0  0  0  0  0  0  0  0  0  0  0
   -1.4597    0.0372    0.0231 C   0  0  0  0  0  0  0  0  0  0  0  0
   -4.6187    0.2868   -0.4461 C   0  0  0  0  0  0  0  0  0  0  0  0
   -3.2455    2.3903    0.4286 C   0  0  0  0  0  0  0  0  0  0  0  0
   -4.4334   -0.9769   -0.4040 O   0  0  0  0  0  0  0  0  0  0  0  0
   -5.2576    1.0133   -1.2341 O   0  0  0  0  0  0  0  0  0  0  0  0
   -4.3032    3.4986    0.6124 C   0  0  0  0  0  0  0  0  0  0  0  0
   -3.7636    4.8245    0.0692 C   0  0  0  0  0  0  0  0  0  0  0  0
   -4.7017    3.6753    2.0804 C   0  0  0  0  0  0  0  0  0  0  0  0
   -0.6843   -1.2250    0.1144 C   0  0  0  0  0  0  0  0  0  0  0  0
   -1.0332   -2.4472   -0.4283 C   0  0  0  0  0  0  0  0  0  0  0  0
    0.5473   -1.4732    0.7765 C   0  0  0  0  0  0  0  0  0  0  0  0
   -0.0430   -3.3433   -0.1051 N   0  0  0  0  0  0  0  0  0  0  0  0
    0.9047   -2.7579    0.6672 N   0  0  0  0  0  0  0  0  0  0  0  0
    1.3764   -0.5393    1.5302 C   0  0  0  0  0  0  0  0  0  0  0  0
    0.0613   -4.7128   -0.4774 C   0  0  0  0  0  0  0  0  0  0  0  0
    1.6829   -0.8182    2.8691 C   0  0  0  0  0  0  0  0  0  0  0  0
    1.8770    0.6364    0.9533 C   0  0  0  0  0  0  0  0  0  0  0  0
    1.1708   -5.4592   -0.0492 C   0  0  0  0  0  0  0  0  0  0  0  0
   -0.9168   -5.3281   -1.2706 C   0  0  0  0  0  0  0  0  0  0  0  0
    2.4378    0.0831    3.6247 C   0  0  0  0  0  0  0  0  0  0  0  0
    2.6035    1.5525    1.7161 C   0  0  0  0  0  0  0  0  0  0  0  0
    1.6293    0.9498   -0.3597 O   0  0  0  0  0  0  0  0  0  0  0  0
    1.3022   -6.8020   -0.4125 C   0  0  0  0  0  0  0  0  0  0  0  0
   -0.7811   -6.6732   -1.6319 C   0  0  0  0  0  0  0  0  0  0  0  0
    2.8865    1.2718    3.0518 C   0  0  0  0  0  0  0  0  0  0  0  0
    2.6074    0.3390   -1.2234 C   0  0  0  0  0  0  0  0  0  0  0  0
    0.3268   -7.4022   -1.2038 C   0  0  0  0  0  0  0  0  0  0  0  0
    3.6900    1.3266   -1.5792 C   0  0  0  0  0  0  0  0  0  0  0  0
    0.5057   -9.2172   -1.7006 Br  0  0  0  0  0  0  0  0  0  0  0  0
    3.4129    2.4112   -2.4239 C   0  0  0  0  0  0  0  0  0  0  0  0
    4.9820    1.1872   -1.0539 C   0  0  0  0  0  0  0  0  0  0  0  0
    4.4124    3.3292   -2.7479 C   0  0  0  0  0  0  0  0  0  0  0  0
    5.9793    2.1080   -1.3767 C   0  0  0  0  0  0  0  0  0  0  0  0
    5.6951    3.1766   -2.2252 C   0  0  0  0  0  0  0  0  0  0  0  0
   -4.3648    0.9315    1.5881 H   0  0  0  0  0  0  0  0  0  0  0  0
   -3.0655   -0.8785    0.8088 H   0  0  0  0  0  0  0  0  0  0  0  0
   -2.2948    0.0421    1.9678 H   0  0  0  0  0  0  0  0  0  0  0  0
   -1.8722    0.1493   -0.9857 H   0  0  0  0  0  0  0  0  0  0  0  0
   -0.8578    0.9181    0.2504 H   0  0  0  0  0  0  0  0  0  0  0  0
   -2.4013    2.6020    1.0963 H   0  0  0  0  0  0  0  0  0  0  0  0
   -2.8563    2.4481   -0.5965 H   0  0  0  0  0  0  0  0  0  0  0  0
   -5.2038    3.2488    0.0404 H   0  0  0  0  0  0  0  0  0  0  0  0
   -4.5204    5.6132    0.1496 H   0  0  0  0  0  0  0  0  0  0  0  0
   -3.4913    4.7321   -0.9880 H   0  0  0  0  0  0  0  0  0  0  0  0
   -2.8756    5.1546    0.6236 H   0  0  0  0  0  0  0  0  0  0  0  0
   -5.1732    2.7737    2.4836 H   0  0  0  0  0  0  0  0  0  0  0  0
   -3.8292    3.9083    2.6982 H   0  0  0  0  0  0  0  0  0  0  0  0
   -5.4203    4.4933    2.1910 H   0  0  0  0  0  0  0  0  0  0  0  0
   -1.8992   -2.7260   -1.0132 H   0  0  0  0  0  0  0  0  0  0  0  0
    1.3372   -1.7419    3.3294 H   0  0  0  0  0  0  0  0  0  0  0  0
    1.9514   -5.0043    0.5596 H   0  0  0  0  0  0  0  0  0  0  0  0
   -1.7944   -4.7981   -1.6279 H   0  0  0  0  0  0  0  0  0  0  0  0
    2.6768   -0.1448    4.6602 H   0  0  0  0  0  0  0  0  0  0  0  0
    2.9611    2.4750    1.2670 H   0  0  0  0  0  0  0  0  0  0  0  0
    2.1695   -7.3649   -0.0775 H   0  0  0  0  0  0  0  0  0  0  0  0
   -1.5458   -7.1410   -2.2478 H   0  0  0  0  0  0  0  0  0  0  0  0
    3.4712    1.9745    3.6406 H   0  0  0  0  0  0  0  0  0  0  0  0
    3.0283   -0.5844   -0.8049 H   0  0  0  0  0  0  0  0  0  0  0  0
    2.0869    0.0416   -2.1411 H   0  0  0  0  0  0  0  0  0  0  0  0
    2.4140    2.5441   -2.8340 H   0  0  0  0  0  0  0  0  0  0  0  0
    5.2197    0.3620   -0.3853 H   0  0  0  0  0  0  0  0  0  0  0  0
    4.1905    4.1639   -3.4082 H   0  0  0  0  0  0  0  0  0  0  0  0
    6.9791    1.9910   -0.9672 H   0  0  0  0  0  0  0  0  0  0  0  0
    6.4743    3.8904   -2.4783 H   0  0  0  0  0  0  0  0  0  0  0  0
  1  2  1  0
  2  3  1  0
  1  4  1  0
  5  1  1  0
  4  6  2  0
  4  7  1  0
  8  5  1  0
  9  8  1  0
  8 10  1  0
  3 11  1  0
 11 12  2  0
 13 11  1  0
 12 14  1  0
 15 13  2  0
 13 16  1  0
 14 17  1  0
 14 15  1  0
 16 18  2  0
 19 16  1  0
 17 20  2  0
 21 17  1  0
 18 22  1  0
 23 19  2  0
 19 24  1  0
 20 25  1  0
 26 21  2  0
 22 27  2  0
 27 23  1  0
 24 28  1  0
 25 29  2  0
 29 26  1  0
 28 30  1  0
 29 31  1  0
 30 32  2  0
 33 30  1  0
 32 34  1  0
 35 33  2  0
 34 36  2  0
 36 35  1  0
  1 37  1  1
  2 38  1  0
  2 39  1  0
  3 40  1  0
  3 41  1  0
  5 42  1  0
  5 43  1  0
  8 44  1  0
  9 45  1  0
  9 46  1  0
  9 47  1  0
 10 48  1  0
 10 49  1  0
 10 50  1  0
 12 51  1  0
 18 52  1  0
 20 53  1  0
 21 54  1  0
 22 55  1  0
 23 56  1  0
 25 57  1  0
 26 58  1  0
 27 59  1  0
 28 60  1  0
 28 61  1  0
 32 62  1  0
 33 63  1  0
 34 64  1  0
 35 65  1  0
 36 66  1  0
M  CHG  2   2   1   7  -1
M  END
>  <SMILES_raw>  (89) 
CC(C)C[C@@H](C(O)=O)NCC1=CN(C2=CC=C(Br)C=C2)N=C1C3=CC=CC=C3OCC4=CC=CC=C4

>  <Protonation_Method>  (89) 
MolScrub

>  <Target_pH>  (89) 
7.4

$$$$
N-((3-(2-(benzyloxy)phenyl)1-(4-bromophenyl)-1H-pyrazol-4-yl)methyl)-L-isoleucin
     RDKit          3D

 66 69  0  0  0  0  0  0  0  0999 V2000
   -3.6305    1.4087    0.2158 C   0  0  2  0  0  0  0  0  0  0  0  0
   -2.6445    0.3103    0.6640 N   0  0  0  0  0  0  0  0  0  0  0  0
   -1.3028    0.2762    0.0412 C   0  0  0  0  0  0  0  0  0  0  0  0
   -4.2404    0.9907   -1.1670 C   0  0  0  0  0  0  0  0  0  0  0  0
   -3.0647    2.8179    0.4873 C   0  0  2  0  0  0  0  0  0  0  0  0
   -4.0537   -0.2607   -1.3495 O   0  0  0  0  0  0  0  0  0  0  0  0
   -4.7728    1.8722   -1.8704 O   0  0  0  0  0  0  0  0  0  0  0  0
   -4.1812    3.8404    0.8124 C   0  0  0  0  0  0  0  0  0  0  0  0
   -2.2331    3.3801   -0.6753 C   0  0  0  0  0  0  0  0  0  0  0  0
   -4.8389    3.6201    2.1690 C   0  0  0  0  0  0  0  0  0  0  0  0
   -0.6935   -1.0728    0.1834 C   0  0  0  0  0  0  0  0  0  0  0  0
   -1.1382   -2.2439   -0.4013 C   0  0  0  0  0  0  0  0  0  0  0  0
    0.4548   -1.4637    0.9236 C   0  0  0  0  0  0  0  0  0  0  0  0
   -0.2955   -3.2540   -0.0029 N   0  0  0  0  0  0  0  0  0  0  0  0
    0.6588   -2.7844    0.8375 N   0  0  0  0  0  0  0  0  0  0  0  0
    1.3444   -0.6275    1.7243 C   0  0  0  0  0  0  0  0  0  0  0  0
   -0.3466   -4.6311   -0.3582 C   0  0  0  0  0  0  0  0  0  0  0  0
    1.5915   -0.9672    3.0625 C   0  0  0  0  0  0  0  0  0  0  0  0
    1.9605    0.5158    1.1940 C   0  0  0  0  0  0  0  0  0  0  0  0
    0.6135   -5.5137    0.1630 C   0  0  0  0  0  0  0  0  0  0  0  0
   -1.3375   -5.1236   -1.2207 C   0  0  0  0  0  0  0  0  0  0  0  0
    2.4021   -0.1554    3.8610 C   0  0  0  0  0  0  0  0  0  0  0  0
    2.7483    1.3422    1.9978 C   0  0  0  0  0  0  0  0  0  0  0  0
    1.7735    0.8848   -0.1148 O   0  0  0  0  0  0  0  0  0  0  0  0
    0.5818   -6.8703   -0.1718 C   0  0  0  0  0  0  0  0  0  0  0  0
   -1.3647   -6.4824   -1.5534 C   0  0  0  0  0  0  0  0  0  0  0  0
    2.9701    1.0033    3.3321 C   0  0  0  0  0  0  0  0  0  0  0  0
    2.7344    0.2385   -0.9687 C   0  0  0  0  0  0  0  0  0  0  0  0
   -0.4072   -7.3480   -1.0279 C   0  0  0  0  0  0  0  0  0  0  0  0
    3.7469    1.2469   -1.4497 C   0  0  0  0  0  0  0  0  0  0  0  0
   -0.4506   -9.1814   -1.4821 Br  0  0  0  0  0  0  0  0  0  0  0  0
    5.0560    1.2379   -0.9478 C   0  0  0  0  0  0  0  0  0  0  0  0
    3.3853    2.2223   -2.3904 C   0  0  0  0  0  0  0  0  0  0  0  0
    5.9878    2.1792   -1.3876 C   0  0  0  0  0  0  0  0  0  0  0  0
    4.3197    3.1608   -2.8302 C   0  0  0  0  0  0  0  0  0  0  0  0
    5.6203    3.1387   -2.3296 C   0  0  0  0  0  0  0  0  0  0  0  0
   -4.4640    1.2369    0.9067 H   0  0  0  0  0  0  0  0  0  0  0  0
   -3.1301   -0.5023    0.2188 H   0  0  0  0  0  0  0  0  0  0  0  0
   -2.6364    0.1557    1.6714 H   0  0  0  0  0  0  0  0  0  0  0  0
   -1.4070    0.5154   -1.0214 H   0  0  0  0  0  0  0  0  0  0  0  0
   -0.7219    1.0529    0.5386 H   0  0  0  0  0  0  0  0  0  0  0  0
   -2.4053    2.7694    1.3642 H   0  0  0  0  0  0  0  0  0  0  0  0
   -3.7554    4.8521    0.8169 H   0  0  0  0  0  0  0  0  0  0  0  0
   -4.9501    3.8299    0.0310 H   0  0  0  0  0  0  0  0  0  0  0  0
   -1.7631    4.3248   -0.3782 H   0  0  0  0  0  0  0  0  0  0  0  0
   -1.4274    2.7121   -0.9801 H   0  0  0  0  0  0  0  0  0  0  0  0
   -2.8492    3.5883   -1.5552 H   0  0  0  0  0  0  0  0  0  0  0  0
   -5.3929    2.6783    2.2110 H   0  0  0  0  0  0  0  0  0  0  0  0
   -4.0934    3.6192    2.9707 H   0  0  0  0  0  0  0  0  0  0  0  0
   -5.5506    4.4277    2.3724 H   0  0  0  0  0  0  0  0  0  0  0  0
   -1.9744   -2.4160   -1.0663 H   0  0  0  0  0  0  0  0  0  0  0  0
    1.1612   -1.8718    3.4867 H   0  0  0  0  0  0  0  0  0  0  0  0
    1.3960   -5.1603    0.8325 H   0  0  0  0  0  0  0  0  0  0  0  0
   -2.1019   -4.4845   -1.6540 H   0  0  0  0  0  0  0  0  0  0  0  0
    2.5929   -0.4313    4.8950 H   0  0  0  0  0  0  0  0  0  0  0  0
    3.2003    2.2398    1.5817 H   0  0  0  0  0  0  0  0  0  0  0  0
    1.3316   -7.5406    0.2404 H   0  0  0  0  0  0  0  0  0  0  0  0
   -2.1376   -6.8531   -2.2236 H   0  0  0  0  0  0  0  0  0  0  0  0
    3.5971    1.6366    3.9559 H   0  0  0  0  0  0  0  0  0  0  0  0
    3.2261   -0.6217   -0.4941 H   0  0  0  0  0  0  0  0  0  0  0  0
    2.1894   -0.1613   -1.8327 H   0  0  0  0  0  0  0  0  0  0  0  0
    5.3580    0.4976   -0.2097 H   0  0  0  0  0  0  0  0  0  0  0  0
    2.3722    2.2549   -2.7855 H   0  0  0  0  0  0  0  0  0  0  0  0
    7.0017    2.1638   -0.9961 H   0  0  0  0  0  0  0  0  0  0  0  0
    4.0335    3.9111   -3.5637 H   0  0  0  0  0  0  0  0  0  0  0  0
    6.3473    3.8696   -2.6739 H   0  0  0  0  0  0  0  0  0  0  0  0
  1  2  1  0
  2  3  1  0
  1  4  1  0
  5  1  1  0
  4  6  2  0
  4  7  1  0
  8  5  1  0
  5  9  1  0
 10  8  1  0
  3 11  1  0
 11 12  2  0
 13 11  1  0
 12 14  1  0
 15 13  2  0
 13 16  1  0
 14 17  1  0
 14 15  1  0
 16 18  2  0
 19 16  1  0
 17 20  2  0
 21 17  1  0
 18 22  1  0
 23 19  2  0
 19 24  1  0
 20 25  1  0
 26 21  2  0
 22 27  2  0
 27 23  1  0
 24 28  1  0
 25 29  2  0
 29 26  1  0
 28 30  1  0
 29 31  1  0
 30 32  2  0
 33 30  1  0
 32 34  1  0
 35 33  2  0
 34 36  2  0
 36 35  1  0
  1 37  1  1
  2 38  1  0
  2 39  1  0
  3 40  1  0
  3 41  1  0
  5 42  1  1
  8 43  1  0
  8 44  1  0
  9 45  1  0
  9 46  1  0
  9 47  1  0
 10 48  1  0
 10 49  1  0
 10 50  1  0
 12 51  1  0
 18 52  1  0
 20 53  1  0
 21 54  1  0
 22 55  1  0
 23 56  1  0
 25 57  1  0
 26 58  1  0
 27 59  1  0
 28 60  1  0
 28 61  1  0
 32 62  1  0
 33 63  1  0
 34 64  1  0
 35 65  1  0
 36 66  1  0
M  CHG  2   2   1   7  -1
M  END
>  <SMILES_raw>  (90) 
CC[C@H](C)[C@@H](C(O)=O)NCC1=CN(C2=CC=C(Br)C=C2)N=C1C3=CC=CC=C3OCC4=CC=CC=C4

>  <Protonation_Method>  (90) 
MolScrub

>  <Target_pH>  (90) 
7.4

$$$$
N-((3-(2-(benzyloxy)phenyl)1-(4-bromophenyl)-1H-pyrazol-4-yl)methyl)-L-valin
     RDKit          3D

 63 66  0  0  0  0  0  0  0  0999 V2000
   -2.1135   -1.5722    0.6015 C   0  0  2  0  0  0  0  0  0  0  0  0
   -0.8373   -1.4046   -0.2423 N   0  0  0  0  0  0  0  0  0  0  0  0
   -0.9625   -0.6034   -1.4817 C   0  0  0  0  0  0  0  0  0  0  0  0
   -2.1691   -0.4193    1.6612 C   0  0  0  0  0  0  0  0  0  0  0  0
   -2.0719   -2.9578    1.2849 C   0  0  0  0  0  0  0  0  0  0  0  0
   -0.9943   -0.0425    1.9738 O   0  0  0  0  0  0  0  0  0  0  0  0
   -3.3029    0.0432    1.9391 O   0  0  0  0  0  0  0  0  0  0  0  0
   -3.2561   -3.1562    2.2374 C   0  0  0  0  0  0  0  0  0  0  0  0
   -2.0855   -4.1056    0.2573 C   0  0  0  0  0  0  0  0  0  0  0  0
   -0.7357    0.8454   -1.2710 C   0  0  0  0  0  0  0  0  0  0  0  0
   -1.6125    1.7312   -0.6798 C   0  0  0  0  0  0  0  0  0  0  0  0
    0.3940    1.6456   -1.6105 C   0  0  0  0  0  0  0  0  0  0  0  0
   -0.9696    2.9392   -0.5672 N   0  0  0  0  0  0  0  0  0  0  0  0
    0.2013    2.9228   -1.2501 N   0  0  0  0  0  0  0  0  0  0  0  0
    1.6276    1.2648   -2.3044 C   0  0  0  0  0  0  0  0  0  0  0  0
   -1.4156    4.1032    0.1207 C   0  0  0  0  0  0  0  0  0  0  0  0
    2.0912    2.0835   -3.3465 C   0  0  0  0  0  0  0  0  0  0  0  0
    2.3647    0.1163   -1.9912 C   0  0  0  0  0  0  0  0  0  0  0  0
   -0.6781    5.2942    0.0245 C   0  0  0  0  0  0  0  0  0  0  0  0
   -2.5706    4.0698    0.9172 C   0  0  0  0  0  0  0  0  0  0  0  0
    3.2433    1.7479   -4.0693 C   0  0  0  0  0  0  0  0  0  0  0  0
    3.4969   -0.2400   -2.7385 C   0  0  0  0  0  0  0  0  0  0  0  0
    1.9619   -0.7331   -0.9951 O   0  0  0  0  0  0  0  0  0  0  0  0
   -1.1041    6.4423    0.7012 C   0  0  0  0  0  0  0  0  0  0  0  0
   -2.9915    5.2200    1.5932 C   0  0  0  0  0  0  0  0  0  0  0  0
    3.9412    0.5819   -3.7690 C   0  0  0  0  0  0  0  0  0  0  0  0
    2.7330   -0.5258    0.2010 C   0  0  0  0  0  0  0  0  0  0  0  0
   -2.2581    6.3980    1.4804 C   0  0  0  0  0  0  0  0  0  0  0  0
    2.5710   -1.7690    1.0362 C   0  0  0  0  0  0  0  0  0  0  0  0
   -2.8276    7.9444    2.4063 Br  0  0  0  0  0  0  0  0  0  0  0  0
    3.1616   -2.9721    0.6278 C   0  0  0  0  0  0  0  0  0  0  0  0
    1.8298   -1.7502    2.2245 C   0  0  0  0  0  0  0  0  0  0  0  0
    3.0243   -4.1358    1.3909 C   0  0  0  0  0  0  0  0  0  0  0  0
    1.6909   -2.9158    2.9881 C   0  0  0  0  0  0  0  0  0  0  0  0
    2.2937   -4.1068    2.5759 C   0  0  0  0  0  0  0  0  0  0  0  0
   -2.9664   -1.5048   -0.0833 H   0  0  0  0  0  0  0  0  0  0  0  0
   -0.2630   -0.8415    0.4258 H   0  0  0  0  0  0  0  0  0  0  0  0
   -0.2922   -2.2576   -0.3683 H   0  0  0  0  0  0  0  0  0  0  0  0
   -0.2522   -1.0236   -2.1992 H   0  0  0  0  0  0  0  0  0  0  0  0
   -1.9552   -0.7918   -1.9026 H   0  0  0  0  0  0  0  0  0  0  0  0
   -1.1533   -3.0466    1.8825 H   0  0  0  0  0  0  0  0  0  0  0  0
   -3.2176   -2.4565    3.0800 H   0  0  0  0  0  0  0  0  0  0  0  0
   -3.2418   -4.1648    2.6655 H   0  0  0  0  0  0  0  0  0  0  0  0
   -4.2129   -3.0171    1.7179 H   0  0  0  0  0  0  0  0  0  0  0  0
   -2.9561   -4.0274   -0.4077 H   0  0  0  0  0  0  0  0  0  0  0  0
   -1.1836   -4.1126   -0.3641 H   0  0  0  0  0  0  0  0  0  0  0  0
   -2.1334   -5.0853    0.7592 H   0  0  0  0  0  0  0  0  0  0  0  0
   -2.5990    1.5772   -0.2720 H   0  0  0  0  0  0  0  0  0  0  0  0
    1.5439    2.9890   -3.6112 H   0  0  0  0  0  0  0  0  0  0  0  0
    0.2352    5.3400   -0.5640 H   0  0  0  0  0  0  0  0  0  0  0  0
   -3.1450    3.1582    1.0699 H   0  0  0  0  0  0  0  0  0  0  0  0
    3.5792    2.3914   -4.8804 H   0  0  0  0  0  0  0  0  0  0  0  0
    4.0309   -1.1578   -2.5183 H   0  0  0  0  0  0  0  0  0  0  0  0
   -0.5265    7.3592    0.6243 H   0  0  0  0  0  0  0  0  0  0  0  0
   -3.8802    5.1764    2.2186 H   0  0  0  0  0  0  0  0  0  0  0  0
    4.8258    0.3073   -4.3435 H   0  0  0  0  0  0  0  0  0  0  0  0
    2.3514    0.3547    0.7288 H   0  0  0  0  0  0  0  0  0  0  0  0
    3.8002   -0.3787   -0.0098 H   0  0  0  0  0  0  0  0  0  0  0  0
    3.7464   -3.0011   -0.2872 H   0  0  0  0  0  0  0  0  0  0  0  0
    1.3611   -0.8240    2.5677 H   0  0  0  0  0  0  0  0  0  0  0  0
    3.5119   -5.0556    1.0669 H   0  0  0  0  0  0  0  0  0  0  0  0
    1.1238   -2.8808    3.9138 H   0  0  0  0  0  0  0  0  0  0  0  0
    2.1986   -5.0095    3.1811 H   0  0  0  0  0  0  0  0  0  0  0  0
  1  2  1  0
  2  3  1  0
  1  4  1  0
  5  1  1  0
  4  6  2  0
  4  7  1  0
  8  5  1  0
  5  9  1  0
  3 10  1  0
 10 11  2  0
 12 10  1  0
 11 13  1  0
 14 12  2  0
 12 15  1  0
 13 16  1  0
 13 14  1  0
 15 17  2  0
 18 15  1  0
 16 19  2  0
 20 16  1  0
 17 21  1  0
 22 18  2  0
 18 23  1  0
 19 24  1  0
 25 20  2  0
 21 26  2  0
 26 22  1  0
 23 27  1  0
 24 28  2  0
 28 25  1  0
 27 29  1  0
 28 30  1  0
 29 31  2  0
 32 29  1  0
 31 33  1  0
 34 32  2  0
 33 35  2  0
 35 34  1  0
  1 36  1  6
  2 37  1  0
  2 38  1  0
  3 39  1  0
  3 40  1  0
  5 41  1  0
  8 42  1  0
  8 43  1  0
  8 44  1  0
  9 45  1  0
  9 46  1  0
  9 47  1  0
 11 48  1  0
 17 49  1  0
 19 50  1  0
 20 51  1  0
 21 52  1  0
 22 53  1  0
 24 54  1  0
 25 55  1  0
 26 56  1  0
 27 57  1  0
 27 58  1  0
 31 59  1  0
 32 60  1  0
 33 61  1  0
 34 62  1  0
 35 63  1  0
M  CHG  2   2   1   7  -1
M  END
>  <SMILES_raw>  (91) 
CC(C)[C@@H](C(O)=O)NCC1=CN(C2=CC=C(Br)C=C2)N=C1C3=CC=CC=C3OCC4=CC=CC=C4

>  <Protonation_Method>  (91) 
MolScrub

>  <Target_pH>  (91) 
7.4

$$$$
N-((3-(2-(benzyloxy)phenyl)1-(4-bromophenyl)-1H-pyrazol-4-yl)methyl)-L-tyrosin
     RDKit          3D

 68 72  0  0  0  0  0  0  0  0999 V2000
    3.6966   -0.1947    1.1026 C   0  0  2  0  0  0  0  0  0  0  0  0
    2.3775    0.6006    1.1178 N   0  0  0  0  0  0  0  0  0  0  0  0
    1.2680    0.0447    0.3305 C   0  0  0  0  0  0  0  0  0  0  0  0
    4.1399   -0.4285    2.5792 C   0  0  0  0  0  0  0  0  0  0  0  0
    4.7597    0.5690    0.3078 C   0  0  0  0  0  0  0  0  0  0  0  0
    3.2176   -0.0234    3.3636 O   0  0  0  0  0  0  0  0  0  0  0  0
    5.2628   -0.9363    2.7852 O   0  0  0  0  0  0  0  0  0  0  0  0
    5.3475   -0.2747   -0.8026 C   0  0  0  0  0  0  0  0  0  0  0  0
    6.2307   -1.3207   -0.4922 C   0  0  0  0  0  0  0  0  0  0  0  0
    5.0160   -0.0377   -2.1442 C   0  0  0  0  0  0  0  0  0  0  0  0
    6.7710   -2.1184   -1.5029 C   0  0  0  0  0  0  0  0  0  0  0  0
    5.5588   -0.8367   -3.1550 C   0  0  0  0  0  0  0  0  0  0  0  0
    6.4289   -1.8695   -2.8276 C   0  0  0  0  0  0  0  0  0  0  0  0
    6.9373   -2.6237   -3.8436 O   0  0  0  0  0  0  0  0  0  0  0  0
    0.0461    0.8731    0.4794 C   0  0  0  0  0  0  0  0  0  0  0  0
   -0.1597    2.1780    0.0698 C   0  0  0  0  0  0  0  0  0  0  0  0
   -1.1875    0.4946    1.0780 C   0  0  0  0  0  0  0  0  0  0  0  0
   -1.4477    2.5219    0.4227 N   0  0  0  0  0  0  0  0  0  0  0  0
   -2.0527    1.5147    1.0901 N   0  0  0  0  0  0  0  0  0  0  0  0
   -1.5454   -0.8007    1.6500 C   0  0  0  0  0  0  0  0  0  0  0  0
   -2.1395    3.7364    0.1509 C   0  0  0  0  0  0  0  0  0  0  0  0
   -1.8865   -0.8746    3.0083 C   0  0  0  0  0  0  0  0  0  0  0  0
   -1.5449   -1.9719    0.8685 C   0  0  0  0  0  0  0  0  0  0  0  0
   -3.4498    3.9029    0.6286 C   0  0  0  0  0  0  0  0  0  0  0  0
   -1.5470    4.7605   -0.6026 C   0  0  0  0  0  0  0  0  0  0  0  0
   -2.1907   -2.1048    3.5914 C   0  0  0  0  0  0  0  0  0  0  0  0
   -1.8325   -3.2037    1.4649 C   0  0  0  0  0  0  0  0  0  0  0  0
   -1.1997   -1.8504   -0.4572 O   0  0  0  0  0  0  0  0  0  0  0  0
   -4.1570    5.0766    0.3538 C   0  0  0  0  0  0  0  0  0  0  0  0
   -2.2613    5.9315   -0.8773 C   0  0  0  0  0  0  0  0  0  0  0  0
   -2.1550   -3.2666    2.8238 C   0  0  0  0  0  0  0  0  0  0  0  0
   -1.9895   -2.6108   -1.3859 C   0  0  0  0  0  0  0  0  0  0  0  0
   -3.5619    6.0815   -0.4009 C   0  0  0  0  0  0  0  0  0  0  0  0
   -3.4430   -2.1988   -1.4409 C   0  0  0  0  0  0  0  0  0  0  0  0
   -4.5212    7.6617   -0.7851 Br  0  0  0  0  0  0  0  0  0  0  0  0
   -4.4549   -3.1707   -1.4412 C   0  0  0  0  0  0  0  0  0  0  0  0
   -3.8062   -0.8452   -1.5142 C   0  0  0  0  0  0  0  0  0  0  0  0
   -5.8001   -2.7948   -1.4878 C   0  0  0  0  0  0  0  0  0  0  0  0
   -5.1516   -0.4718   -1.5590 C   0  0  0  0  0  0  0  0  0  0  0  0
   -6.1476   -1.4461   -1.5468 C   0  0  0  0  0  0  0  0  0  0  0  0
    3.4575   -1.1754    0.6749 H   0  0  0  0  0  0  0  0  0  0  0  0
    2.1455    0.5082    2.1432 H   0  0  0  0  0  0  0  0  0  0  0  0
    2.5283    1.6048    1.0132 H   0  0  0  0  0  0  0  0  0  0  0  0
    1.5883    0.0221   -0.7160 H   0  0  0  0  0  0  0  0  0  0  0  0
    1.1221   -0.9819    0.6722 H   0  0  0  0  0  0  0  0  0  0  0  0
    5.5822    0.9100    0.9481 H   0  0  0  0  0  0  0  0  0  0  0  0
    4.3436    1.4826   -0.1345 H   0  0  0  0  0  0  0  0  0  0  0  0
    6.5095   -1.5196    0.5454 H   0  0  0  0  0  0  0  0  0  0  0  0
    4.3458    0.7732   -2.4190 H   0  0  0  0  0  0  0  0  0  0  0  0
    7.4555   -2.9160   -1.2304 H   0  0  0  0  0  0  0  0  0  0  0  0
    5.3127   -0.6475   -4.1949 H   0  0  0  0  0  0  0  0  0  0  0  0
    7.5270   -3.2944   -3.4604 H   0  0  0  0  0  0  0  0  0  0  0  0
    0.4910    2.8687   -0.4452 H   0  0  0  0  0  0  0  0  0  0  0  0
   -1.9112    0.0282    3.6173 H   0  0  0  0  0  0  0  0  0  0  0  0
   -3.9362    3.1287    1.2213 H   0  0  0  0  0  0  0  0  0  0  0  0
   -0.5408    4.6827   -1.0017 H   0  0  0  0  0  0  0  0  0  0  0  0
   -2.4423   -2.1580    4.6478 H   0  0  0  0  0  0  0  0  0  0  0  0
   -1.7920   -4.1312    0.9033 H   0  0  0  0  0  0  0  0  0  0  0  0
   -5.1688    5.1905    0.7323 H   0  0  0  0  0  0  0  0  0  0  0  0
   -1.7997    6.7153   -1.4703 H   0  0  0  0  0  0  0  0  0  0  0  0
   -2.3768   -4.2265    3.2850 H   0  0  0  0  0  0  0  0  0  0  0  0
   -1.5580   -2.4273   -2.3779 H   0  0  0  0  0  0  0  0  0  0  0  0
   -1.8655   -3.6849   -1.2082 H   0  0  0  0  0  0  0  0  0  0  0  0
   -4.2073   -4.2275   -1.3879 H   0  0  0  0  0  0  0  0  0  0  0  0
   -3.0448   -0.0696   -1.5138 H   0  0  0  0  0  0  0  0  0  0  0  0
   -6.5777   -3.5550   -1.4748 H   0  0  0  0  0  0  0  0  0  0  0  0
   -5.4181    0.5807   -1.6008 H   0  0  0  0  0  0  0  0  0  0  0  0
   -7.1953   -1.1535   -1.5759 H   0  0  0  0  0  0  0  0  0  0  0  0
  1  2  1  0
  2  3  1  0
  1  4  1  0
  5  1  1  0
  4  6  2  0
  4  7  1  0
  8  5  1  0
  9  8  2  0
  8 10  1  0
 11  9  1  0
 10 12  2  0
 13 11  2  0
 12 13  1  0
 14 13  1  0
  3 15  1  0
 15 16  2  0
 17 15  1  0
 16 18  1  0
 19 17  2  0
 17 20  1  0
 18 21  1  0
 18 19  1  0
 20 22  2  0
 23 20  1  0
 21 24  2  0
 25 21  1  0
 22 26  1  0
 27 23  2  0
 23 28  1  0
 24 29  1  0
 30 25  2  0
 26 31  2  0
 31 27  1  0
 28 32  1  0
 29 33  2  0
 33 30  1  0
 32 34  1  0
 33 35  1  0
 34 36  2  0
 37 34  1  0
 36 38  1  0
 39 37  2  0
 38 40  2  0
 40 39  1  0
  1 41  1  6
  2 42  1  0
  2 43  1  0
  3 44  1  0
  3 45  1  0
  5 46  1  0
  5 47  1  0
  9 48  1  0
 10 49  1  0
 11 50  1  0
 12 51  1  0
 14 52  1  0
 16 53  1  0
 22 54  1  0
 24 55  1  0
 25 56  1  0
 26 57  1  0
 27 58  1  0
 29 59  1  0
 30 60  1  0
 31 61  1  0
 32 62  1  0
 32 63  1  0
 36 64  1  0
 37 65  1  0
 38 66  1  0
 39 67  1  0
 40 68  1  0
M  CHG  2   2   1   7  -1
M  END
>  <SMILES_raw>  (92) 
OC1=CC=C(C=C1)C[C@@H](C(O)=O)NCC2=CN(C3=CC=C(Br)C=C3)N=C2C4=CC=CC=C4OCC5=CC=CC=C5

>  <Protonation_Method>  (92) 
MolScrub

>  <Target_pH>  (92) 
7.4

$$$$
N-((3-(2-(benzyloxy)phenyl)1-(4-bromophenyl)-1H-pyrazol-4-yl)methyl)-L-phenylalanin
     RDKit          3D

 67 71  0  0  0  0  0  0  0  0999 V2000
    3.4355    0.8406    1.4393 C   0  0  2  0  0  0  0  0  0  0  0  0
    2.0595    0.6568    0.8024 N   0  0  0  0  0  0  0  0  0  0  0  0
    1.9789    0.8059   -0.6651 C   0  0  0  0  0  0  0  0  0  0  0  0
    3.8746    2.3323    1.3435 C   0  0  0  0  0  0  0  0  0  0  0  0
    4.4565   -0.1741    0.9207 C   0  0  0  0  0  0  0  0  0  0  0  0
    2.8524    3.0921    1.3008 O   0  0  0  0  0  0  0  0  0  0  0  0
    5.0984    2.5716    1.2611 O   0  0  0  0  0  0  0  0  0  0  0  0
    4.0194   -1.6124    1.0972 C   0  0  0  0  0  0  0  0  0  0  0  0
    3.8395   -2.1534    2.3788 C   0  0  0  0  0  0  0  0  0  0  0  0
    3.8000   -2.4318   -0.0164 C   0  0  0  0  0  0  0  0  0  0  0  0
    3.4265   -3.4767    2.5391 C   0  0  0  0  0  0  0  0  0  0  0  0
    3.3892   -3.7552    0.1467 C   0  0  0  0  0  0  0  0  0  0  0  0
    3.1975   -4.2765    1.4234 C   0  0  0  0  0  0  0  0  0  0  0  0
    0.6017    1.1678   -1.0790 C   0  0  0  0  0  0  0  0  0  0  0  0
    0.0708    2.4401   -1.1565 C   0  0  0  0  0  0  0  0  0  0  0  0
   -0.4647    0.3132   -1.4723 C   0  0  0  0  0  0  0  0  0  0  0  0
   -1.2137    2.3220   -1.6303 N   0  0  0  0  0  0  0  0  0  0  0  0
   -1.5217    1.0285   -1.8707 N   0  0  0  0  0  0  0  0  0  0  0  0
   -0.5088   -1.1484   -1.5269 C   0  0  0  0  0  0  0  0  0  0  0  0
   -2.1587    3.3529   -1.8868 C   0  0  0  0  0  0  0  0  0  0  0  0
   -0.9538   -1.7626   -2.7065 C   0  0  0  0  0  0  0  0  0  0  0  0
   -0.1738   -1.9582   -0.4274 C   0  0  0  0  0  0  0  0  0  0  0  0
   -1.8741    4.6924   -1.5961 C   0  0  0  0  0  0  0  0  0  0  0  0
   -3.4019    3.0194   -2.4463 C   0  0  0  0  0  0  0  0  0  0  0  0
   -1.0089   -3.1535   -2.8118 C   0  0  0  0  0  0  0  0  0  0  0  0
   -0.1828   -3.3522   -0.5550 C   0  0  0  0  0  0  0  0  0  0  0  0
    0.1973   -1.3747    0.7635 O   0  0  0  0  0  0  0  0  0  0  0  0
   -2.8198    5.6850   -1.8755 C   0  0  0  0  0  0  0  0  0  0  0  0
   -4.3412    4.0143   -2.7289 C   0  0  0  0  0  0  0  0  0  0  0  0
   -0.6040   -3.9467   -1.7436 C   0  0  0  0  0  0  0  0  0  0  0  0
   -0.6604   -1.7347    1.8666 C   0  0  0  0  0  0  0  0  0  0  0  0
   -4.0449    5.3424   -2.4424 C   0  0  0  0  0  0  0  0  0  0  0  0
   -1.9943   -1.0309    1.8218 C   0  0  0  0  0  0  0  0  0  0  0  0
   -5.3074    6.6952   -2.8311 Br  0  0  0  0  0  0  0  0  0  0  0  0
   -2.0691    0.3659    1.7393 C   0  0  0  0  0  0  0  0  0  0  0  0
   -3.1842   -1.7723    1.8611 C   0  0  0  0  0  0  0  0  0  0  0  0
   -3.3086    1.0046    1.6674 C   0  0  0  0  0  0  0  0  0  0  0  0
   -4.4220   -1.1305    1.8012 C   0  0  0  0  0  0  0  0  0  0  0  0
   -4.4847    0.2579    1.6992 C   0  0  0  0  0  0  0  0  0  0  0  0
    3.2529    0.6647    2.5056 H   0  0  0  0  0  0  0  0  0  0  0  0
    1.5751   -0.1948    1.1048 H   0  0  0  0  0  0  0  0  0  0  0  0
    1.5645    1.4895    1.1742 H   0  0  0  0  0  0  0  0  0  0  0  0
    2.2907   -0.1422   -1.1152 H   0  0  0  0  0  0  0  0  0  0  0  0
    2.6869    1.5814   -0.9831 H   0  0  0  0  0  0  0  0  0  0  0  0
    4.6876    0.0257   -0.1329 H   0  0  0  0  0  0  0  0  0  0  0  0
    5.4074   -0.0445    1.4611 H   0  0  0  0  0  0  0  0  0  0  0  0
    4.0409   -1.5574    3.2662 H   0  0  0  0  0  0  0  0  0  0  0  0
    3.9568   -2.0543   -1.0241 H   0  0  0  0  0  0  0  0  0  0  0  0
    3.3028   -3.8914    3.5379 H   0  0  0  0  0  0  0  0  0  0  0  0
    3.2245   -4.3820   -0.7280 H   0  0  0  0  0  0  0  0  0  0  0  0
    2.8918   -5.3128    1.5470 H   0  0  0  0  0  0  0  0  0  0  0  0
    0.5213    3.3973   -0.9326 H   0  0  0  0  0  0  0  0  0  0  0  0
   -1.2813   -1.1542   -3.5467 H   0  0  0  0  0  0  0  0  0  0  0  0
   -0.9325    5.0048   -1.1543 H   0  0  0  0  0  0  0  0  0  0  0  0
   -3.6549    1.9855   -2.6736 H   0  0  0  0  0  0  0  0  0  0  0  0
   -1.3724   -3.6120   -3.7259 H   0  0  0  0  0  0  0  0  0  0  0  0
    0.1312   -3.9877    0.2668 H   0  0  0  0  0  0  0  0  0  0  0  0
   -2.5781    6.7237   -1.6588 H   0  0  0  0  0  0  0  0  0  0  0  0
   -5.2940    3.7397   -3.1726 H   0  0  0  0  0  0  0  0  0  0  0  0
   -0.6356   -5.0316   -1.8320 H   0  0  0  0  0  0  0  0  0  0  0  0
   -0.7715   -2.8202    1.9565 H   0  0  0  0  0  0  0  0  0  0  0  0
   -0.1407   -1.4219    2.7787 H   0  0  0  0  0  0  0  0  0  0  0  0
   -1.1657    0.9677    1.7078 H   0  0  0  0  0  0  0  0  0  0  0  0
   -3.1579   -2.8582    1.9262 H   0  0  0  0  0  0  0  0  0  0  0  0
   -3.3574    2.0873    1.5742 H   0  0  0  0  0  0  0  0  0  0  0  0
   -5.3382   -1.7156    1.8266 H   0  0  0  0  0  0  0  0  0  0  0  0
   -5.4483    0.7574    1.6418 H   0  0  0  0  0  0  0  0  0  0  0  0
  1  2  1  0
  2  3  1  0
  1  4  1  0
  1  5  1  0
  4  6  2  0
  4  7  1  0
  5  8  1  0
  8  9  2  0
 10  8  1  0
  9 11  1  0
 12 10  2  0
 11 13  2  0
 13 12  1  0
  3 14  1  0
 14 15  2  0
 16 14  1  0
 15 17  1  0
 18 16  2  0
 16 19  1  0
 17 20  1  0
 17 18  1  0
 19 21  2  0
 22 19  1  0
 20 23  2  0
 24 20  1  0
 21 25  1  0
 26 22  2  0
 22 27  1  0
 23 28  1  0
 29 24  2  0
 25 30  2  0
 30 26  1  0
 27 31  1  0
 28 32  2  0
 32 29  1  0
 31 33  1  0
 32 34  1  0
 33 35  2  0
 36 33  1  0
 35 37  1  0
 38 36  2  0
 37 39  2  0
 39 38  1  0
  1 40  1  1
  2 41  1  0
  2 42  1  0
  3 43  1  0
  3 44  1  0
  5 45  1  0
  5 46  1  0
  9 47  1  0
 10 48  1  0
 11 49  1  0
 12 50  1  0
 13 51  1  0
 15 52  1  0
 21 53  1  0
 23 54  1  0
 24 55  1  0
 25 56  1  0
 26 57  1  0
 28 58  1  0
 29 59  1  0
 30 60  1  0
 31 61  1  0
 31 62  1  0
 35 63  1  0
 36 64  1  0
 37 65  1  0
 38 66  1  0
 39 67  1  0
M  CHG  2   2   1   7  -1
M  END
>  <SMILES_raw>  (93) 
O=C(O)[C@H](CC1=CC=CC=C1)NCC2=CN(C3=CC=C(Br)C=C3)N=C2C4=CC=CC=C4OCC5=CC=CC=C5

>  <Protonation_Method>  (93) 
MolScrub

>  <Target_pH>  (93) 
7.4

$$$$
N-((3-(2-(benzyloxy)phenyl)1-(4-bromophenyl)-1H-pyrazol-4-yl)methyl)-L-tryptophan
     RDKit          3D

 71 76  0  0  0  0  0  0  0  0999 V2000
    2.3941   -0.1324   -0.7415 C   0  0  2  0  0  0  0  0  0  0  0  0
    0.9657    0.1048   -0.2485 N   0  0  0  0  0  0  0  0  0  0  0  0
    0.8115    1.2977    0.6185 C   0  0  0  0  0  0  0  0  0  0  0  0
    2.7271    0.8424   -1.9121 C   0  0  0  0  0  0  0  0  0  0  0  0
    2.5048   -1.5277   -1.3629 C   0  0  0  0  0  0  0  0  0  0  0  0
    1.6616    1.2863   -2.4512 O   0  0  0  0  0  0  0  0  0  0  0  0
    3.9374    1.0991   -2.1059 O   0  0  0  0  0  0  0  0  0  0  0  0
    3.0784   -2.5303   -0.4061 C   0  0  0  0  0  0  0  0  0  0  0  0
    2.4000   -3.4670    0.3465 C   0  0  0  0  0  0  0  0  0  0  0  0
    4.4727   -2.6902   -0.1153 C   0  0  0  0  0  0  0  0  0  0  0  0
    3.3239   -4.1995    1.0482 N   0  0  0  0  0  0  0  0  0  0  0  0
    4.5942   -3.7422    0.7917 C   0  0  0  0  0  0  0  0  0  0  0  0
    5.6437   -2.0331   -0.5445 C   0  0  0  0  0  0  0  0  0  0  0  0
    5.8306   -4.1820    1.2837 C   0  0  0  0  0  0  0  0  0  0  0  0
    6.8886   -2.4617   -0.0665 C   0  0  0  0  0  0  0  0  0  0  0  0
    6.9785   -3.5209    0.8349 C   0  0  0  0  0  0  0  0  0  0  0  0
   -0.5085    1.9446    0.4128 C   0  0  0  0  0  0  0  0  0  0  0  0
   -0.9126    2.6228   -0.7215 C   0  0  0  0  0  0  0  0  0  0  0  0
   -1.6219    2.0375    1.2881 C   0  0  0  0  0  0  0  0  0  0  0  0
   -2.2031    3.0445   -0.5214 N   0  0  0  0  0  0  0  0  0  0  0  0
   -2.6305    2.7161    0.7232 N   0  0  0  0  0  0  0  0  0  0  0  0
   -1.7559    1.5026    2.6391 C   0  0  0  0  0  0  0  0  0  0  0  0
   -3.0602    3.6991   -1.4489 C   0  0  0  0  0  0  0  0  0  0  0  0
   -2.0557    2.3719    3.6960 C   0  0  0  0  0  0  0  0  0  0  0  0
   -1.6022    0.1328    2.9127 C   0  0  0  0  0  0  0  0  0  0  0  0
   -4.3585    4.0588   -1.0547 C   0  0  0  0  0  0  0  0  0  0  0  0
   -2.6321    3.9754   -2.7573 C   0  0  0  0  0  0  0  0  0  0  0  0
   -2.1617    1.8856    5.0015 C   0  0  0  0  0  0  0  0  0  0  0  0
   -1.6876   -0.3493    4.2203 C   0  0  0  0  0  0  0  0  0  0  0  0
   -1.3066   -0.7639    1.9151 O   0  0  0  0  0  0  0  0  0  0  0  0
   -5.2164    4.6914   -1.9594 C   0  0  0  0  0  0  0  0  0  0  0  0
   -3.4968    4.6011   -3.6604 C   0  0  0  0  0  0  0  0  0  0  0  0
   -1.9669    0.5304    5.2650 C   0  0  0  0  0  0  0  0  0  0  0  0
   -2.5195   -1.2692    1.3280 C   0  0  0  0  0  0  0  0  0  0  0  0
   -4.7820    4.9561   -3.2585 C   0  0  0  0  0  0  0  0  0  0  0  0
   -2.1648   -1.6972   -0.0719 C   0  0  0  0  0  0  0  0  0  0  0  0
   -5.9436    5.7997   -4.4911 Br  0  0  0  0  0  0  0  0  0  0  0  0
   -1.5168   -2.9195   -0.2990 C   0  0  0  0  0  0  0  0  0  0  0  0
   -2.4017   -0.8410   -1.1577 C   0  0  0  0  0  0  0  0  0  0  0  0
   -1.0922   -3.2664   -1.5827 C   0  0  0  0  0  0  0  0  0  0  0  0
   -1.9645   -1.1836   -2.4346 C   0  0  0  0  0  0  0  0  0  0  0  0
   -1.3112   -2.3958   -2.6480 C   0  0  0  0  0  0  0  0  0  0  0  0
    3.0674    0.0235    0.1087 H   0  0  0  0  0  0  0  0  0  0  0  0
    0.4880   -0.7282    0.1076 H   0  0  0  0  0  0  0  0  0  0  0  0
    0.5099    0.3595   -1.1498 H   0  0  0  0  0  0  0  0  0  0  0  0
    0.9833    0.9797    1.6482 H   0  0  0  0  0  0  0  0  0  0  0  0
    1.5972    2.0100    0.3497 H   0  0  0  0  0  0  0  0  0  0  0  0
    3.1394   -1.5239   -2.2622 H   0  0  0  0  0  0  0  0  0  0  0  0
    1.5260   -1.8813   -1.7073 H   0  0  0  0  0  0  0  0  0  0  0  0
    1.3461   -3.6945    0.4414 H   0  0  0  0  0  0  0  0  0  0  0  0
    3.1141   -4.9636    1.6772 H   0  0  0  0  0  0  0  0  0  0  0  0
    5.5909   -1.2069   -1.2543 H   0  0  0  0  0  0  0  0  0  0  0  0
    5.9063   -5.0110    1.9820 H   0  0  0  0  0  0  0  0  0  0  0  0
    7.7926   -1.9611   -0.4097 H   0  0  0  0  0  0  0  0  0  0  0  0
    7.9580   -3.8415    1.1861 H   0  0  0  0  0  0  0  0  0  0  0  0
   -0.3739    2.8144   -1.6409 H   0  0  0  0  0  0  0  0  0  0  0  0
   -2.2002    3.4334    3.5014 H   0  0  0  0  0  0  0  0  0  0  0  0
   -4.7174    3.8536   -0.0458 H   0  0  0  0  0  0  0  0  0  0  0  0
   -1.6379    3.7188   -3.1139 H   0  0  0  0  0  0  0  0  0  0  0  0
   -2.3774    2.5708    5.8193 H   0  0  0  0  0  0  0  0  0  0  0  0
   -1.5213   -1.4007    4.4283 H   0  0  0  0  0  0  0  0  0  0  0  0
   -6.2176    4.9732   -1.6419 H   0  0  0  0  0  0  0  0  0  0  0  0
   -3.1538    4.8082   -4.6733 H   0  0  0  0  0  0  0  0  0  0  0  0
   -2.0364    0.1610    6.2860 H   0  0  0  0  0  0  0  0  0  0  0  0
   -2.8727   -2.1289    1.9077 H   0  0  0  0  0  0  0  0  0  0  0  0
   -3.3235   -0.5173    1.3049 H   0  0  0  0  0  0  0  0  0  0  0  0
   -1.3220   -3.6044    0.5255 H   0  0  0  0  0  0  0  0  0  0  0  0
   -2.9115    0.1090   -1.0065 H   0  0  0  0  0  0  0  0  0  0  0  0
   -0.5834   -4.2140   -1.7557 H   0  0  0  0  0  0  0  0  0  0  0  0
   -2.1385   -0.5085   -3.2729 H   0  0  0  0  0  0  0  0  0  0  0  0
   -0.9710   -2.6573   -3.6440 H   0  0  0  0  0  0  0  0  0  0  0  0
  1  2  1  0
  2  3  1  0
  1  4  1  0
  1  5  1  0
  4  6  2  0
  4  7  1  0
  5  8  1  0
  8  9  2  0
 10  8  1  0
  9 11  1  0
 12 10  2  0
 10 13  1  0
 11 12  1  0
 14 12  1  0
 13 15  2  0
 16 14  2  0
 15 16  1  0
  3 17  1  0
 17 18  2  0
 19 17  1  0
 18 20  1  0
 21 19  2  0
 19 22  1  0
 20 23  1  0
 20 21  1  0
 22 24  2  0
 25 22  1  0
 23 26  2  0
 27 23  1  0
 24 28  1  0
 29 25  2  0
 25 30  1  0
 26 31  1  0
 32 27  2  0
 28 33  2  0
 33 29  1  0
 30 34  1  0
 31 35  2  0
 35 32  1  0
 34 36  1  0
 35 37  1  0
 36 38  2  0
 39 36  1  0
 38 40  1  0
 41 39  2  0
 40 42  2  0
 42 41  1  0
  1 43  1  1
  2 44  1  0
  2 45  1  0
  3 46  1  0
  3 47  1  0
  5 48  1  0
  5 49  1  0
  9 50  1  0
 11 51  1  0
 13 52  1  0
 14 53  1  0
 15 54  1  0
 16 55  1  0
 18 56  1  0
 24 57  1  0
 26 58  1  0
 27 59  1  0
 28 60  1  0
 29 61  1  0
 31 62  1  0
 32 63  1  0
 33 64  1  0
 34 65  1  0
 34 66  1  0
 38 67  1  0
 39 68  1  0
 40 69  1  0
 41 70  1  0
 42 71  1  0
M  CHG  2   2   1   7  -1
M  END
>  <SMILES_raw>  (94) 
O=C(O)[C@H](CC1=CNC2=C1C=CC=C2)NCC3=CN(C4=CC=C(Br)C=C4)N=C3C5=CC=CC=C5OCC6=CC=CC=C6

>  <Protonation_Method>  (94) 
MolScrub

>  <Target_pH>  (94) 
7.4

$$$$
N-((3-(2-(benzyloxy)phenyl)1-(4-bromophenyl)-1H-pyrazol-4-yl)methyl)-L-threonin
     RDKit          3D

 61 64  0  0  0  0  0  0  0  0999 V2000
   -3.7785   -1.9365   -0.5253 C   0  0  2  0  0  0  0  0  0  0  0  0
   -2.5746   -1.0529   -0.1498 N   0  0  0  0  0  0  0  0  0  0  0  0
   -2.8795    0.0205    0.8088 C   0  0  0  0  0  0  0  0  0  0  0  0
   -4.1198   -2.9472    0.5933 C   0  0  0  0  0  0  0  0  0  0  0  0
   -3.3475   -2.7369   -1.7652 C   0  0  1  0  0  0  0  0  0  0  0  0
   -3.1497   -3.0858    1.3998 O   0  0  0  0  0  0  0  0  0  0  0  0
   -5.2795   -3.4194    0.5905 O   0  0  0  0  0  0  0  0  0  0  0  0
   -4.5260   -3.2485   -2.5842 C   0  0  0  0  0  0  0  0  0  0  0  0
   -2.5572   -1.8546   -2.5967 O   0  0  0  0  0  0  0  0  0  0  0  0
   -1.7624    0.9887    0.9601 C   0  0  0  0  0  0  0  0  0  0  0  0
   -1.8035    2.3604    0.7978 C   0  0  0  0  0  0  0  0  0  0  0  0
   -0.4109    0.7221    1.3104 C   0  0  0  0  0  0  0  0  0  0  0  0
   -0.5349    2.8445    1.0298 N   0  0  0  0  0  0  0  0  0  0  0  0
    0.3199    1.8419    1.3418 N   0  0  0  0  0  0  0  0  0  0  0  0
    0.1818   -0.5769    1.5931 C   0  0  0  0  0  0  0  0  0  0  0  0
   -0.0847    4.1931    0.9621 C   0  0  0  0  0  0  0  0  0  0  0  0
   -0.1389   -1.2316    2.7875 C   0  0  0  0  0  0  0  0  0  0  0  0
    1.0066   -1.2232    0.6609 C   0  0  0  0  0  0  0  0  0  0  0  0
    1.2719    4.4782    1.1886 C   0  0  0  0  0  0  0  0  0  0  0  0
   -0.9675    5.2415    0.6691 C   0  0  0  0  0  0  0  0  0  0  0  0
    0.3359   -2.5222    3.0313 C   0  0  0  0  0  0  0  0  0  0  0  0
    1.4640   -2.5211    0.8950 C   0  0  0  0  0  0  0  0  0  0  0  0
    1.3026   -0.6533   -0.5498 O   0  0  0  0  0  0  0  0  0  0  0  0
    1.7414    5.7917    1.1150 C   0  0  0  0  0  0  0  0  0  0  0  0
   -0.4947    6.5566    0.5967 C   0  0  0  0  0  0  0  0  0  0  0  0
    1.1295   -3.1686    2.0833 C   0  0  0  0  0  0  0  0  0  0  0  0
    2.4955    0.1419   -0.4560 C   0  0  0  0  0  0  0  0  0  0  0  0
    0.8557    6.8243    0.8150 C   0  0  0  0  0  0  0  0  0  0  0  0
    3.6186   -0.5376   -1.2008 C   0  0  0  0  0  0  0  0  0  0  0  0
    1.4878    8.6020    0.7078 Br  0  0  0  0  0  0  0  0  0  0  0  0
    4.6513   -1.1822   -0.5050 C   0  0  0  0  0  0  0  0  0  0  0  0
    3.6265   -0.5608   -2.6024 C   0  0  0  0  0  0  0  0  0  0  0  0
    5.6773   -1.8273   -1.1986 C   0  0  0  0  0  0  0  0  0  0  0  0
    4.6554   -1.2041   -3.2940 C   0  0  0  0  0  0  0  0  0  0  0  0
    5.6817   -1.8337   -2.5912 C   0  0  0  0  0  0  0  0  0  0  0  0
   -4.6062   -1.2528   -0.7515 H   0  0  0  0  0  0  0  0  0  0  0  0
   -1.9583   -1.7334    0.3363 H   0  0  0  0  0  0  0  0  0  0  0  0
   -2.1169   -0.7594   -1.0248 H   0  0  0  0  0  0  0  0  0  0  0  0
   -3.1270   -0.4362    1.7734 H   0  0  0  0  0  0  0  0  0  0  0  0
   -3.7698    0.5409    0.4342 H   0  0  0  0  0  0  0  0  0  0  0  0
   -2.6994   -3.5767   -1.4865 H   0  0  0  0  0  0  0  0  0  0  0  0
   -5.1397   -3.9547   -2.0202 H   0  0  0  0  0  0  0  0  0  0  0  0
   -5.1573   -2.4183   -2.9169 H   0  0  0  0  0  0  0  0  0  0  0  0
   -4.1720   -3.7533   -3.4897 H   0  0  0  0  0  0  0  0  0  0  0  0
   -2.2727   -2.3827   -3.3670 H   0  0  0  0  0  0  0  0  0  0  0  0
   -2.6238    3.0123    0.5353 H   0  0  0  0  0  0  0  0  0  0  0  0
   -0.7831   -0.7602    3.5278 H   0  0  0  0  0  0  0  0  0  0  0  0
    1.9819    3.6875    1.4199 H   0  0  0  0  0  0  0  0  0  0  0  0
   -2.0267    5.0786    0.4902 H   0  0  0  0  0  0  0  0  0  0  0  0
    0.0548   -3.0391    3.9452 H   0  0  0  0  0  0  0  0  0  0  0  0
    2.0693   -3.0296    0.1518 H   0  0  0  0  0  0  0  0  0  0  0  0
    2.7952    5.9928    1.2867 H   0  0  0  0  0  0  0  0  0  0  0  0
   -1.1865    7.3639    0.3695 H   0  0  0  0  0  0  0  0  0  0  0  0
    1.4751   -4.1827    2.2677 H   0  0  0  0  0  0  0  0  0  0  0  0
    2.2859    1.1063   -0.9305 H   0  0  0  0  0  0  0  0  0  0  0  0
    2.7908    0.3666    0.5787 H   0  0  0  0  0  0  0  0  0  0  0  0
    4.6585   -1.1915    0.5830 H   0  0  0  0  0  0  0  0  0  0  0  0
    2.8258   -0.0803   -3.1616 H   0  0  0  0  0  0  0  0  0  0  0  0
    6.4729   -2.3266   -0.6525 H   0  0  0  0  0  0  0  0  0  0  0  0
    4.6533   -1.2184   -4.3830 H   0  0  0  0  0  0  0  0  0  0  0  0
    6.4821   -2.3362   -3.1295 H   0  0  0  0  0  0  0  0  0  0  0  0
  1  2  1  0
  2  3  1  0
  1  4  1  0
  5  1  1  0
  4  6  2  0
  4  7  1  0
  8  5  1  0
  5  9  1  0
  3 10  1  0
 10 11  2  0
 12 10  1  0
 11 13  1  0
 14 12  2  0
 12 15  1  0
 13 16  1  0
 13 14  1  0
 15 17  2  0
 18 15  1  0
 16 19  2  0
 20 16  1  0
 17 21  1  0
 22 18  2  0
 18 23  1  0
 19 24  1  0
 25 20  2  0
 21 26  2  0
 26 22  1  0
 23 27  1  0
 24 28  2  0
 28 25  1  0
 27 29  1  0
 28 30  1  0
 29 31  2  0
 32 29  1  0
 31 33  1  0
 34 32  2  0
 33 35  2  0
 35 34  1  0
  1 36  1  6
  2 37  1  0
  2 38  1  0
  3 39  1  0
  3 40  1  0
  5 41  1  1
  8 42  1  0
  8 43  1  0
  8 44  1  0
  9 45  1  0
 11 46  1  0
 17 47  1  0
 19 48  1  0
 20 49  1  0
 21 50  1  0
 22 51  1  0
 24 52  1  0
 25 53  1  0
 26 54  1  0
 27 55  1  0
 27 56  1  0
 31 57  1  0
 32 58  1  0
 33 59  1  0
 34 60  1  0
 35 61  1  0
M  CHG  2   2   1   7  -1
M  END
>  <SMILES_raw>  (95) 
C[C@@H](O)[C@@H](C(O)=O)NCC1=CN(C2=CC=C(Br)C=C2)N=C1C3=CC=CC=C3OCC4=CC=CC=C4

>  <Protonation_Method>  (95) 
MolScrub

>  <Target_pH>  (95) 
7.4

$$$$
N-((3-(2-(benzyloxy)phenyl)1-(4-bromophenyl)-1H-pyrazol-4-yl)methyl)-L-aspartic acid
     RDKit          3D

 59 62  0  0  0  0  0  0  0  0999 V2000
   -2.0618   -2.4453    0.4441 C   0  0  2  0  0  0  0  0  0  0  0  0
   -0.9428   -1.8555    1.3105 N   0  0  0  0  0  0  0  0  0  0  0  0
   -1.2143   -0.6268    2.0709 C   0  0  0  0  0  0  0  0  0  0  0  0
   -2.4261   -1.5766   -0.7977 C   0  0  0  0  0  0  0  0  0  0  0  0
   -3.2222   -2.9174    1.3147 C   0  0  0  0  0  0  0  0  0  0  0  0
   -3.6174   -1.1810   -0.9034 O   0  0  0  0  0  0  0  0  0  0  0  0
   -1.4197   -1.2996   -1.5209 O   0  0  0  0  0  0  0  0  0  0  0  0
   -2.7705   -3.8545    2.4267 C   0  0  0  0  0  0  0  0  0  0  0  0
   -3.6437   -4.6396    2.8741 O   0  0  0  0  0  0  0  0  0  0  0  0
   -1.5602   -3.7034    2.7928 O   0  0  0  0  0  0  0  0  0  0  0  0
   -1.0751    0.6402    1.3116 C   0  0  0  0  0  0  0  0  0  0  0  0
   -2.0453    1.2867    0.5743 C   0  0  0  0  0  0  0  0  0  0  0  0
    0.0634    1.4845    1.1936 C   0  0  0  0  0  0  0  0  0  0  0  0
   -1.4609    2.3799   -0.0135 N   0  0  0  0  0  0  0  0  0  0  0  0
   -0.2082    2.5826    0.4738 N   0  0  0  0  0  0  0  0  0  0  0  0
    1.3882    1.2839    1.7672 C   0  0  0  0  0  0  0  0  0  0  0  0
   -2.0319    3.2684   -0.9662 C   0  0  0  0  0  0  0  0  0  0  0  0
    1.9023    2.2356    2.6586 C   0  0  0  0  0  0  0  0  0  0  0  0
    2.1568    0.1500    1.4704 C   0  0  0  0  0  0  0  0  0  0  0  0
   -1.3410    4.4362   -1.3263 C   0  0  0  0  0  0  0  0  0  0  0  0
   -3.2691    2.9865   -1.5634 C   0  0  0  0  0  0  0  0  0  0  0  0
    3.1413    2.0345    3.2724 C   0  0  0  0  0  0  0  0  0  0  0  0
    3.3811   -0.0662    2.1065 C   0  0  0  0  0  0  0  0  0  0  0  0
    1.7400   -0.8122    0.5857 O   0  0  0  0  0  0  0  0  0  0  0  0
   -1.8920    5.3230   -2.2552 C   0  0  0  0  0  0  0  0  0  0  0  0
   -3.8157    3.8759   -2.4943 C   0  0  0  0  0  0  0  0  0  0  0  0
    3.8750    0.8795    3.0032 C   0  0  0  0  0  0  0  0  0  0  0  0
    1.9141   -0.3724   -0.7753 C   0  0  0  0  0  0  0  0  0  0  0  0
   -3.1287    5.0401   -2.8317 C   0  0  0  0  0  0  0  0  0  0  0  0
    2.5958   -1.4854   -1.5333 C   0  0  0  0  0  0  0  0  0  0  0  0
   -3.8742    6.2419   -4.0865 Br  0  0  0  0  0  0  0  0  0  0  0  0
    1.8386   -2.4504   -2.2130 C   0  0  0  0  0  0  0  0  0  0  0  0
    3.9949   -1.5933   -1.5362 C   0  0  0  0  0  0  0  0  0  0  0  0
    2.4672   -3.4964   -2.8916 C   0  0  0  0  0  0  0  0  0  0  0  0
    4.6233   -2.6379   -2.2175 C   0  0  0  0  0  0  0  0  0  0  0  0
    3.8584   -3.5894   -2.8949 C   0  0  0  0  0  0  0  0  0  0  0  0
   -1.5925   -3.3440    0.0178 H   0  0  0  0  0  0  0  0  0  0  0  0
   -0.1069   -1.7497    0.7242 H   0  0  0  0  0  0  0  0  0  0  0  0
   -0.7655   -2.6222    2.0054 H   0  0  0  0  0  0  0  0  0  0  0  0
   -2.2097   -0.7035    2.5171 H   0  0  0  0  0  0  0  0  0  0  0  0
   -0.5057   -0.6335    2.9065 H   0  0  0  0  0  0  0  0  0  0  0  0
   -3.7623   -2.0745    1.7603 H   0  0  0  0  0  0  0  0  0  0  0  0
   -3.9438   -3.4526    0.6847 H   0  0  0  0  0  0  0  0  0  0  0  0
   -3.0731    1.0129    0.3795 H   0  0  0  0  0  0  0  0  0  0  0  0
    1.3288    3.1329    2.8840 H   0  0  0  0  0  0  0  0  0  0  0  0
   -0.3718    4.6667   -0.8891 H   0  0  0  0  0  0  0  0  0  0  0  0
   -3.8127    2.0665   -1.3555 H   0  0  0  0  0  0  0  0  0  0  0  0
    3.5263    2.7746    3.9687 H   0  0  0  0  0  0  0  0  0  0  0  0
    3.9504   -0.9668    1.8930 H   0  0  0  0  0  0  0  0  0  0  0  0
   -1.3475    6.2239   -2.5219 H   0  0  0  0  0  0  0  0  0  0  0  0
   -4.7720    3.6401   -2.9526 H   0  0  0  0  0  0  0  0  0  0  0  0
    4.8323    0.7161    3.4914 H   0  0  0  0  0  0  0  0  0  0  0  0
    0.9295   -0.1600   -1.2024 H   0  0  0  0  0  0  0  0  0  0  0  0
    2.5101    0.5472   -0.8601 H   0  0  0  0  0  0  0  0  0  0  0  0
    0.7503   -2.3865   -2.2208 H   0  0  0  0  0  0  0  0  0  0  0  0
    4.5999   -0.8609   -1.0054 H   0  0  0  0  0  0  0  0  0  0  0  0
    1.8640   -4.2358   -3.4147 H   0  0  0  0  0  0  0  0  0  0  0  0
    5.7074   -2.7124   -2.2171 H   0  0  0  0  0  0  0  0  0  0  0  0
    4.3451   -4.4047   -3.4232 H   0  0  0  0  0  0  0  0  0  0  0  0
  1  2  1  0
  2  3  1  0
  1  4  1  0
  5  1  1  0
  4  6  2  0
  4  7  1  0
  5  8  1  0
  8  9  2  0
  8 10  1  0
  3 11  1  0
 11 12  2  0
 13 11  1  0
 12 14  1  0
 15 13  2  0
 13 16  1  0
 14 17  1  0
 14 15  1  0
 16 18  2  0
 19 16  1  0
 17 20  2  0
 21 17  1  0
 18 22  1  0
 23 19  2  0
 19 24  1  0
 20 25  1  0
 26 21  2  0
 22 27  2  0
 27 23  1  0
 24 28  1  0
 25 29  2  0
 29 26  1  0
 28 30  1  0
 29 31  1  0
 30 32  2  0
 33 30  1  0
 32 34  1  0
 35 33  2  0
 34 36  2  0
 36 35  1  0
  1 37  1  6
  2 38  1  0
  2 39  1  0
  3 40  1  0
  3 41  1  0
  5 42  1  0
  5 43  1  0
 12 44  1  0
 18 45  1  0
 20 46  1  0
 21 47  1  0
 22 48  1  0
 23 49  1  0
 25 50  1  0
 26 51  1  0
 27 52  1  0
 28 53  1  0
 28 54  1  0
 32 55  1  0
 33 56  1  0
 34 57  1  0
 35 58  1  0
 36 59  1  0
M  CHG  3   2   1   7  -1  10  -1
M  END
>  <SMILES_raw>  (96) 
O=C(O)C[C@@H](C(O)=O)NCC1=CN(C2=CC=C(Br)C=C2)N=C1C3=CC=CC=C3OCC4=CC=CC=C4

>  <Protonation_Method>  (96) 
MolScrub

>  <Target_pH>  (96) 
7.4

$$$$
N-((3-(2-(benzyloxy)phenyl)1-(4-bromophenyl)-1H-pyrazol-4-yl)methyl)-L-arginin
     RDKit          3D

 71 74  0  0  0  0  0  0  0  0999 V2000
    8.7775   -0.9122   -2.1828 N   0  0  0  0  0  0  0  0  0  0  0  0
    7.9561   -0.9949   -1.1349 C   0  0  0  0  0  0  0  0  0  0  0  0
    6.6675   -0.6917   -1.2128 N   0  0  0  0  0  0  0  0  0  0  0  0
    8.4420   -1.4209    0.0353 N   0  0  0  0  0  0  0  0  0  0  0  0
    5.8312   -0.3662   -2.3627 C   0  0  0  0  0  0  0  0  0  0  0  0
    4.8988    0.8214   -2.0990 C   0  0  0  0  0  0  0  0  0  0  0  0
    4.0118    0.8132   -0.8358 C   0  0  0  0  0  0  0  0  0  0  0  0
    3.2759   -0.4939   -0.5294 C   0  0  2  0  0  0  0  0  0  0  0  0
    1.9525   -0.1563    0.1560 N   0  0  0  0  0  0  0  0  0  0  0  0
    4.0463   -1.4858    0.4229 C   0  0  0  0  0  0  0  0  0  0  0  0
    0.7845    0.2010   -0.6676 C   0  0  0  0  0  0  0  0  0  0  0  0
    5.2649   -1.2335    0.6681 O   0  0  0  0  0  0  0  0  0  0  0  0
    3.2461   -2.3373    0.9137 O   0  0  0  0  0  0  0  0  0  0  0  0
   -0.2418    0.8606    0.1702 C   0  0  0  0  0  0  0  0  0  0  0  0
   -0.4217    2.2122    0.4053 C   0  0  0  0  0  0  0  0  0  0  0  0
   -1.2668    0.2354    0.9240 C   0  0  0  0  0  0  0  0  0  0  0  0
   -1.5342    2.3423    1.2144 N   0  0  0  0  0  0  0  0  0  0  0  0
   -2.0078    1.1305    1.5810 N   0  0  0  0  0  0  0  0  0  0  0  0
   -1.5541   -1.1865    1.0186 C   0  0  0  0  0  0  0  0  0  0  0  0
   -2.1859    3.5353    1.6327 C   0  0  0  0  0  0  0  0  0  0  0  0
   -0.9479   -1.9548    2.0244 C   0  0  0  0  0  0  0  0  0  0  0  0
   -2.3984   -1.8104    0.0850 C   0  0  0  0  0  0  0  0  0  0  0  0
   -3.3885    3.4426    2.3502 C   0  0  0  0  0  0  0  0  0  0  0  0
   -1.6687    4.7991    1.3132 C   0  0  0  0  0  0  0  0  0  0  0  0
   -1.1915   -3.3296    2.0937 C   0  0  0  0  0  0  0  0  0  0  0  0
   -2.6129   -3.1871    0.1370 C   0  0  0  0  0  0  0  0  0  0  0  0
   -2.9599   -1.1065   -0.9525 O   0  0  0  0  0  0  0  0  0  0  0  0
   -4.0767    4.5984    2.7296 C   0  0  0  0  0  0  0  0  0  0  0  0
   -2.3595    5.9542    1.7078 C   0  0  0  0  0  0  0  0  0  0  0  0
   -2.0309   -3.9390    1.1564 C   0  0  0  0  0  0  0  0  0  0  0  0
   -4.1689   -0.4491   -0.5352 C   0  0  0  0  0  0  0  0  0  0  0  0
   -3.5621    5.8502    2.4038 C   0  0  0  0  0  0  0  0  0  0  0  0
   -5.3673   -1.1763   -1.0942 C   0  0  0  0  0  0  0  0  0  0  0  0
   -4.5032    7.4113    2.9000 Br  0  0  0  0  0  0  0  0  0  0  0  0
   -5.7503   -1.0081   -2.4342 C   0  0  0  0  0  0  0  0  0  0  0  0
   -6.0975   -2.0583   -0.2826 C   0  0  0  0  0  0  0  0  0  0  0  0
   -6.8444   -1.7070   -2.9465 C   0  0  0  0  0  0  0  0  0  0  0  0
   -7.1878   -2.7580   -0.7999 C   0  0  0  0  0  0  0  0  0  0  0  0
   -7.5631   -2.5816   -2.1318 C   0  0  0  0  0  0  0  0  0  0  0  0
    8.4461   -0.6231   -3.0903 H   0  0  0  0  0  0  0  0  0  0  0  0
    9.7479   -1.1846   -2.1068 H   0  0  0  0  0  0  0  0  0  0  0  0
    6.1870   -0.8252   -0.3043 H   0  0  0  0  0  0  0  0  0  0  0  0
    9.4075   -1.6714    0.1748 H   0  0  0  0  0  0  0  0  0  0  0  0
    7.7948   -1.5623    0.8120 H   0  0  0  0  0  0  0  0  0  0  0  0
    6.4503   -0.1453   -3.2324 H   0  0  0  0  0  0  0  0  0  0  0  0
    5.2431   -1.2622   -2.5991 H   0  0  0  0  0  0  0  0  0  0  0  0
    5.5120    1.7311   -2.0539 H   0  0  0  0  0  0  0  0  0  0  0  0
    4.2465    0.9389   -2.9750 H   0  0  0  0  0  0  0  0  0  0  0  0
    3.2939    1.6377   -0.9651 H   0  0  0  0  0  0  0  0  0  0  0  0
    4.6258    1.1102    0.0274 H   0  0  0  0  0  0  0  0  0  0  0  0
    3.0109   -1.0320   -1.4452 H   0  0  0  0  0  0  0  0  0  0  0  0
    1.7493   -1.0419    0.6835 H   0  0  0  0  0  0  0  0  0  0  0  0
    2.1119    0.5318    0.9039 H   0  0  0  0  0  0  0  0  0  0  0  0
    1.1287    0.8741   -1.4625 H   0  0  0  0  0  0  0  0  0  0  0  0
    0.4137   -0.7207   -1.1371 H   0  0  0  0  0  0  0  0  0  0  0  0
    0.1101    3.0742    0.0334 H   0  0  0  0  0  0  0  0  0  0  0  0
   -0.2913   -1.4980    2.7635 H   0  0  0  0  0  0  0  0  0  0  0  0
   -3.8205    2.4753    2.6119 H   0  0  0  0  0  0  0  0  0  0  0  0
   -0.7367    4.9306    0.7787 H   0  0  0  0  0  0  0  0  0  0  0  0
   -0.7354   -3.9213    2.8855 H   0  0  0  0  0  0  0  0  0  0  0  0
   -3.2565   -3.6654   -0.5993 H   0  0  0  0  0  0  0  0  0  0  0  0
   -5.0182    4.5069    3.2667 H   0  0  0  0  0  0  0  0  0  0  0  0
   -1.9563    6.9315    1.4583 H   0  0  0  0  0  0  0  0  0  0  0  0
   -2.2217   -5.0088    1.2147 H   0  0  0  0  0  0  0  0  0  0  0  0
   -4.2558   -0.3380    0.5516 H   0  0  0  0  0  0  0  0  0  0  0  0
   -4.1444    0.5683   -0.9462 H   0  0  0  0  0  0  0  0  0  0  0  0
   -5.1958   -0.3331   -3.0853 H   0  0  0  0  0  0  0  0  0  0  0  0
   -5.8124   -2.2139    0.7582 H   0  0  0  0  0  0  0  0  0  0  0  0
   -7.1362   -1.5610   -3.9868 H   0  0  0  0  0  0  0  0  0  0  0  0
   -7.7492   -3.4385   -0.1635 H   0  0  0  0  0  0  0  0  0  0  0  0
   -8.4125   -3.1265   -2.5325 H   0  0  0  0  0  0  0  0  0  0  0  0
  1  2  2  0
  2  3  1  0
  2  4  1  0
  3  5  1  0
  5  6  1  0
  6  7  1  0
  7  8  1  0
  8  9  1  0
  8 10  1  0
  9 11  1  0
 10 12  2  0
 10 13  1  0
 11 14  1  0
 14 15  2  0
 16 14  1  0
 15 17  1  0
 18 16  2  0
 16 19  1  0
 17 20  1  0
 17 18  1  0
 19 21  2  0
 22 19  1  0
 20 23  2  0
 24 20  1  0
 21 25  1  0
 26 22  2  0
 22 27  1  0
 23 28  1  0
 29 24  2  0
 25 30  2  0
 30 26  1  0
 27 31  1  0
 28 32  2  0
 32 29  1  0
 31 33  1  0
 32 34  1  0
 33 35  2  0
 36 33  1  0
 35 37  1  0
 38 36  2  0
 37 39  2  0
 39 38  1  0
  1 40  1  0
  1 41  1  0
  3 42  1  0
  4 43  1  0
  4 44  1  0
  5 45  1  0
  5 46  1  0
  6 47  1  0
  6 48  1  0
  7 49  1  0
  7 50  1  0
  8 51  1  6
  9 52  1  0
  9 53  1  0
 11 54  1  0
 11 55  1  0
 15 56  1  0
 21 57  1  0
 23 58  1  0
 24 59  1  0
 25 60  1  0
 26 61  1  0
 28 62  1  0
 29 63  1  0
 30 64  1  0
 31 65  1  0
 31 66  1  0
 35 67  1  0
 36 68  1  0
 37 69  1  0
 38 70  1  0
 39 71  1  0
M  CHG  3   1   1   9   1  13  -1
M  END
>  <SMILES_raw>  (97) 
N=C(N)NCCC[C@@H](C(O)=O)NCC1=CN(C2=CC=C(Br)C=C2)N=C1C3=CC=CC=C3OCC4=CC=CC=C4

>  <Protonation_Method>  (97) 
MolScrub

>  <Target_pH>  (97) 
7.4

$$$$
N-((3-(2-(benzyloxy)phenyl)1-(4-bromophenyl)-1H-pyrazol-4-yl)methyl)-L-glutamic acid
     RDKit          3D

 62 65  0  0  0  0  0  0  0  0999 V2000
   -3.5938   -2.0242    0.1049 C   0  0  2  0  0  0  0  0  0  0  0  0
   -2.7883   -0.7679    0.5115 N   0  0  0  0  0  0  0  0  0  0  0  0
   -1.3695   -0.7982    0.1159 C   0  0  0  0  0  0  0  0  0  0  0  0
   -4.1737   -1.7497   -1.3279 C   0  0  0  0  0  0  0  0  0  0  0  0
   -4.6449   -2.2088    1.1907 C   0  0  0  0  0  0  0  0  0  0  0  0
   -4.1179   -0.4951   -1.5843 O   0  0  0  0  0  0  0  0  0  0  0  0
   -4.4577   -2.7296   -2.0491 O   0  0  0  0  0  0  0  0  0  0  0  0
   -5.2584   -3.6054    1.2141 C   0  0  0  0  0  0  0  0  0  0  0  0
   -5.9613   -3.9194    2.5412 C   0  0  0  0  0  0  0  0  0  0  0  0
   -6.3560   -5.1128    2.6545 O   0  0  0  0  0  0  0  0  0  0  0  0
   -6.0349   -2.9695    3.3711 O   0  0  0  0  0  0  0  0  0  0  0  0
   -0.7892    0.5682    0.0939 C   0  0  0  0  0  0  0  0  0  0  0  0
   -1.2539    1.6536   -0.6253 C   0  0  0  0  0  0  0  0  0  0  0  0
    0.3587    1.0603    0.7737 C   0  0  0  0  0  0  0  0  0  0  0  0
   -0.4343    2.7182   -0.3440 N   0  0  0  0  0  0  0  0  0  0  0  0
    0.5340    2.3684    0.5362 N   0  0  0  0  0  0  0  0  0  0  0  0
    1.2690    0.3427    1.6694 C   0  0  0  0  0  0  0  0  0  0  0  0
   -0.5184    4.0475   -0.8475 C   0  0  0  0  0  0  0  0  0  0  0  0
    1.5128    0.8827    2.9435 C   0  0  0  0  0  0  0  0  0  0  0  0
    1.9098   -0.8541    1.2844 C   0  0  0  0  0  0  0  0  0  0  0  0
   -1.5254    4.4220   -1.7494 C   0  0  0  0  0  0  0  0  0  0  0  0
    0.4247    5.0026   -0.4330 C   0  0  0  0  0  0  0  0  0  0  0  0
    2.3622    0.2352    3.8382 C   0  0  0  0  0  0  0  0  0  0  0  0
    2.7596   -1.4945    2.1939 C   0  0  0  0  0  0  0  0  0  0  0  0
    1.6417   -1.3144    0.0191 O   0  0  0  0  0  0  0  0  0  0  0  0
   -1.5856    5.7363   -2.2266 C   0  0  0  0  0  0  0  0  0  0  0  0
    0.3610    6.3138   -0.9128 C   0  0  0  0  0  0  0  0  0  0  0  0
    2.9806   -0.9530    3.4642 C   0  0  0  0  0  0  0  0  0  0  0  0
    2.4573   -2.3482   -0.5424 C   0  0  0  0  0  0  0  0  0  0  0  0
   -0.6442    6.6743   -1.8068 C   0  0  0  0  0  0  0  0  0  0  0  0
    3.8326   -1.8780   -0.9584 C   0  0  0  0  0  0  0  0  0  0  0  0
   -0.7312    8.4478   -2.4555 Br  0  0  0  0  0  0  0  0  0  0  0  0
    4.0303   -0.5933   -1.4872 C   0  0  0  0  0  0  0  0  0  0  0  0
    4.9283   -2.7506   -0.8740 C   0  0  0  0  0  0  0  0  0  0  0  0
    5.2993   -0.1821   -1.8971 C   0  0  0  0  0  0  0  0  0  0  0  0
    6.1969   -2.3379   -1.2858 C   0  0  0  0  0  0  0  0  0  0  0  0
    6.3825   -1.0536   -1.7949 C   0  0  0  0  0  0  0  0  0  0  0  0
   -2.8825   -2.8572    0.0897 H   0  0  0  0  0  0  0  0  0  0  0  0
   -3.2641   -0.0767   -0.1153 H   0  0  0  0  0  0  0  0  0  0  0  0
   -2.9575   -0.4734    1.4745 H   0  0  0  0  0  0  0  0  0  0  0  0
   -0.8742   -1.4567    0.8339 H   0  0  0  0  0  0  0  0  0  0  0  0
   -1.2997   -1.2448   -0.8826 H   0  0  0  0  0  0  0  0  0  0  0  0
   -4.1718   -2.0227    2.1638 H   0  0  0  0  0  0  0  0  0  0  0  0
   -5.4435   -1.4639    1.0804 H   0  0  0  0  0  0  0  0  0  0  0  0
   -4.4758   -4.3610    1.0730 H   0  0  0  0  0  0  0  0  0  0  0  0
   -5.9793   -3.7158    0.3962 H   0  0  0  0  0  0  0  0  0  0  0  0
   -2.0923    1.7301   -1.3047 H   0  0  0  0  0  0  0  0  0  0  0  0
    1.0373    1.8159    3.2396 H   0  0  0  0  0  0  0  0  0  0  0  0
   -2.2787    3.7223   -2.1017 H   0  0  0  0  0  0  0  0  0  0  0  0
    1.2178    4.7382    0.2650 H   0  0  0  0  0  0  0  0  0  0  0  0
    2.5400    0.6587    4.8235 H   0  0  0  0  0  0  0  0  0  0  0  0
    3.2718   -2.4188    1.9516 H   0  0  0  0  0  0  0  0  0  0  0  0
   -2.3724    6.0142   -2.9240 H   0  0  0  0  0  0  0  0  0  0  0  0
    1.0983    7.0403   -0.5817 H   0  0  0  0  0  0  0  0  0  0  0  0
    3.6439   -1.4607    4.1606 H   0  0  0  0  0  0  0  0  0  0  0  0
    2.4927   -3.2188    0.1222 H   0  0  0  0  0  0  0  0  0  0  0  0
    1.9429   -2.6881   -1.4493 H   0  0  0  0  0  0  0  0  0  0  0  0
    3.1939    0.0991   -1.5765 H   0  0  0  0  0  0  0  0  0  0  0  0
    4.8010   -3.7600   -0.4880 H   0  0  0  0  0  0  0  0  0  0  0  0
    5.4397    0.8192   -2.2970 H   0  0  0  0  0  0  0  0  0  0  0  0
    7.0403   -3.0203   -1.2127 H   0  0  0  0  0  0  0  0  0  0  0  0
    7.3696   -0.7323   -2.1158 H   0  0  0  0  0  0  0  0  0  0  0  0
  1  2  1  0
  2  3  1  0
  1  4  1  0
  5  1  1  0
  4  6  2  0
  4  7  1  0
  8  5  1  0
  8  9  1  0
  9 10  2  0
  9 11  1  0
  3 12  1  0
 12 13  2  0
 14 12  1  0
 13 15  1  0
 16 14  2  0
 14 17  1  0
 15 18  1  0
 15 16  1  0
 17 19  2  0
 20 17  1  0
 18 21  2  0
 22 18  1  0
 19 23  1  0
 24 20  2  0
 20 25  1  0
 21 26  1  0
 27 22  2  0
 23 28  2  0
 28 24  1  0
 25 29  1  0
 26 30  2  0
 30 27  1  0
 29 31  1  0
 30 32  1  0
 31 33  2  0
 34 31  1  0
 33 35  1  0
 36 34  2  0
 35 37  2  0
 37 36  1  0
  1 38  1  6
  2 39  1  0
  2 40  1  0
  3 41  1  0
  3 42  1  0
  5 43  1  0
  5 44  1  0
  8 45  1  0
  8 46  1  0
 13 47  1  0
 19 48  1  0
 21 49  1  0
 22 50  1  0
 23 51  1  0
 24 52  1  0
 26 53  1  0
 27 54  1  0
 28 55  1  0
 29 56  1  0
 29 57  1  0
 33 58  1  0
 34 59  1  0
 35 60  1  0
 36 61  1  0
 37 62  1  0
M  CHG  3   2   1   7  -1  11  -1
M  END
>  <SMILES_raw>  (98) 
O=C(O)CC[C@@H](C(O)=O)NCC1=CN(C2=CC=C(Br)C=C2)N=C1C3=CC=CC=C3OCC4=CC=CC=C4

>  <Protonation_Method>  (98) 
MolScrub

>  <Target_pH>  (98) 
7.4

$$$$
3-(((3-(2-(benzyloxy)phenyl)-1-(4-bromophenyl)-1H-pyrazol-4-yl)methyl)amino)benzoic acid
     RDKit          3D

 60 64  0  0  0  0  0  0  0  0999 V2000
   -4.3252   -4.2241    0.0707 C   0  0  0  0  0  0  0  0  0  0  0  0
   -5.0094   -4.9403   -1.0795 C   0  0  0  0  0  0  0  0  0  0  0  0
   -5.7445   -5.9381   -0.7888 O   0  0  0  0  0  0  0  0  0  0  0  0
   -4.8006   -4.4905   -2.2514 O   0  0  0  0  0  0  0  0  0  0  0  0
   -4.4889   -4.6621    1.3927 C   0  0  0  0  0  0  0  0  0  0  0  0
   -3.5127   -3.0960   -0.1645 C   0  0  0  0  0  0  0  0  0  0  0  0
   -3.8661   -3.9922    2.4437 C   0  0  0  0  0  0  0  0  0  0  0  0
   -2.8672   -2.4106    0.8737 C   0  0  0  0  0  0  0  0  0  0  0  0
   -3.0693   -2.8747    2.1818 C   0  0  0  0  0  0  0  0  0  0  0  0
   -2.1070   -1.2694    0.6829 N   0  0  0  0  0  0  0  0  0  0  0  0
   -1.8326   -0.6948   -0.6242 C   0  0  0  0  0  0  0  0  0  0  0  0
   -1.2640    0.6903   -0.5699 C   0  0  0  0  0  0  0  0  0  0  0  0
   -1.7721    1.7613    0.1402 C   0  0  0  0  0  0  0  0  0  0  0  0
   -0.1282    1.2207   -1.2373 C   0  0  0  0  0  0  0  0  0  0  0  0
   -0.9688    2.8431   -0.1122 N   0  0  0  0  0  0  0  0  0  0  0  0
    0.0353    2.5243   -0.9644 N   0  0  0  0  0  0  0  0  0  0  0  0
    0.8049    0.5349   -2.1231 C   0  0  0  0  0  0  0  0  0  0  0  0
   -1.0882    4.1634    0.4093 C   0  0  0  0  0  0  0  0  0  0  0  0
    0.8830    0.9232   -3.4686 C   0  0  0  0  0  0  0  0  0  0  0  0
    1.6308   -0.5032   -1.6683 C   0  0  0  0  0  0  0  0  0  0  0  0
   -0.1656    5.1467    0.0148 C   0  0  0  0  0  0  0  0  0  0  0  0
   -2.1077    4.4997    1.3120 C   0  0  0  0  0  0  0  0  0  0  0  0
    1.7443    0.2609   -4.3477 C   0  0  0  0  0  0  0  0  0  0  0  0
    2.4743   -1.1801   -2.5522 C   0  0  0  0  0  0  0  0  0  0  0  0
    1.6120   -0.9392   -0.3678 O   0  0  0  0  0  0  0  0  0  0  0  0
   -0.2618    6.4477    0.5156 C   0  0  0  0  0  0  0  0  0  0  0  0
   -2.1992    5.8032    1.8124 C   0  0  0  0  0  0  0  0  0  0  0  0
    2.5344   -0.7940   -3.8907 C   0  0  0  0  0  0  0  0  0  0  0  0
    2.3489   -0.0609    0.4927 C   0  0  0  0  0  0  0  0  0  0  0  0
   -1.2780    6.7694    1.4122 C   0  0  0  0  0  0  0  0  0  0  0  0
    3.6477   -0.7173    0.8966 C   0  0  0  0  0  0  0  0  0  0  0  0
   -1.4097    8.5286    2.0907 Br  0  0  0  0  0  0  0  0  0  0  0  0
    3.6394   -1.9203    1.6169 C   0  0  0  0  0  0  0  0  0  0  0  0
    4.8777   -0.1436    0.5465 C   0  0  0  0  0  0  0  0  0  0  0  0
    4.8377   -2.5339    1.9836 C   0  0  0  0  0  0  0  0  0  0  0  0
    6.0756   -0.7591    0.9140 C   0  0  0  0  0  0  0  0  0  0  0  0
    6.0552   -1.9528    1.6329 C   0  0  0  0  0  0  0  0  0  0  0  0
   -5.1141   -5.5314    1.5895 H   0  0  0  0  0  0  0  0  0  0  0  0
   -3.4021   -2.7777   -1.1995 H   0  0  0  0  0  0  0  0  0  0  0  0
   -4.0068   -4.3384    3.4631 H   0  0  0  0  0  0  0  0  0  0  0  0
   -2.6033   -2.3609    3.0184 H   0  0  0  0  0  0  0  0  0  0  0  0
   -1.5285   -0.9551    1.4485 H   0  0  0  0  0  0  0  0  0  0  0  0
   -2.7626   -0.6179   -1.2028 H   0  0  0  0  0  0  0  0  0  0  0  0
   -1.1641   -1.3644   -1.1760 H   0  0  0  0  0  0  0  0  0  0  0  0
   -2.6389    1.8088    0.7814 H   0  0  0  0  0  0  0  0  0  0  0  0
    0.2591    1.7357   -3.8368 H   0  0  0  0  0  0  0  0  0  0  0  0
    0.6346    4.9118   -0.6859 H   0  0  0  0  0  0  0  0  0  0  0  0
   -2.8440    3.7750    1.6478 H   0  0  0  0  0  0  0  0  0  0  0  0
    1.7869    0.5597   -5.3919 H   0  0  0  0  0  0  0  0  0  0  0  0
    3.0825   -2.0064   -2.1931 H   0  0  0  0  0  0  0  0  0  0  0  0
    0.4589    7.1963    0.1980 H   0  0  0  0  0  0  0  0  0  0  0  0
   -2.9936    6.0518    2.5120 H   0  0  0  0  0  0  0  0  0  0  0  0
    3.1912   -1.3215   -4.5778 H   0  0  0  0  0  0  0  0  0  0  0  0
    2.5351    0.9250    0.0476 H   0  0  0  0  0  0  0  0  0  0  0  0
    1.7440    0.1093    1.3904 H   0  0  0  0  0  0  0  0  0  0  0  0
    2.6935   -2.3893    1.8811 H   0  0  0  0  0  0  0  0  0  0  0  0
    4.9084    0.7830   -0.0229 H   0  0  0  0  0  0  0  0  0  0  0  0
    4.8182   -3.4696    2.5359 H   0  0  0  0  0  0  0  0  0  0  0  0
    7.0240   -0.3093    0.6334 H   0  0  0  0  0  0  0  0  0  0  0  0
    6.9873   -2.4348    1.9144 H   0  0  0  0  0  0  0  0  0  0  0  0
  1  2  1  0
  2  3  2  0
  2  4  1  0
  1  5  2  0
  6  1  1  0
  5  7  1  0
  8  6  2  0
  7  9  2  0
  9  8  1  0
  8 10  1  0
 10 11  1  0
 11 12  1  0
 12 13  2  0
 14 12  1  0
 13 15  1  0
 16 14  2  0
 14 17  1  0
 15 18  1  0
 15 16  1  0
 17 19  2  0
 20 17  1  0
 18 21  2  0
 22 18  1  0
 19 23  1  0
 24 20  2  0
 20 25  1  0
 21 26  1  0
 27 22  2  0
 23 28  2  0
 28 24  1  0
 25 29  1  0
 26 30  2  0
 30 27  1  0
 29 31  1  0
 30 32  1  0
 31 33  2  0
 34 31  1  0
 33 35  1  0
 36 34  2  0
 35 37  2  0
 37 36  1  0
  5 38  1  0
  6 39  1  0
  7 40  1  0
  9 41  1  0
 10 42  1  0
 11 43  1  0
 11 44  1  0
 13 45  1  0
 19 46  1  0
 21 47  1  0
 22 48  1  0
 23 49  1  0
 24 50  1  0
 26 51  1  0
 27 52  1  0
 28 53  1  0
 29 54  1  0
 29 55  1  0
 33 56  1  0
 34 57  1  0
 35 58  1  0
 36 59  1  0
 37 60  1  0
M  CHG  1   4  -1
M  END
>  <SMILES_raw>  (99) 
O=C(O)C1=CC=CC(NCC2=CN(C3=CC=C(Br)C=C3)N=C2C4=CC=CC=C4OCC5=CC=CC=C5)=C1

>  <Protonation_Method>  (99) 
MolScrub

>  <Target_pH>  (99) 
7.4

$$$$
N-((1-(4-bromophenyl)-3-(2-((4-chlorobenzyl)oxy)phenyl)-1H-pyrazol-4-yl)methyl)-L-valin
     RDKit          3D

 63 66  0  0  0  0  0  0  0  0999 V2000
   -3.5088   -1.6519   -0.4630 C   0  0  2  0  0  0  0  0  0  0  0  0
   -2.2877   -0.7448   -0.2618 N   0  0  0  0  0  0  0  0  0  0  0  0
   -2.2824    0.0019    1.0141 C   0  0  0  0  0  0  0  0  0  0  0  0
   -3.3016   -3.0037    0.2960 C   0  0  0  0  0  0  0  0  0  0  0  0
   -3.7287   -1.8413   -1.9799 C   0  0  0  0  0  0  0  0  0  0  0  0
   -4.3304   -3.5562    0.7466 O   0  0  0  0  0  0  0  0  0  0  0  0
   -2.0622   -3.2708    0.4123 O   0  0  0  0  0  0  0  0  0  0  0  0
   -2.5634   -2.5244   -2.7014 C   0  0  0  0  0  0  0  0  0  0  0  0
   -5.0254   -2.6029   -2.2659 C   0  0  0  0  0  0  0  0  0  0  0  0
   -1.1967    1.0165    1.0436 C   0  0  0  0  0  0  0  0  0  0  0  0
   -1.2360    2.3142    0.5677 C   0  0  0  0  0  0  0  0  0  0  0  0
    0.1115    0.8788    1.5862 C   0  0  0  0  0  0  0  0  0  0  0  0
   -0.0188    2.8950    0.8579 N   0  0  0  0  0  0  0  0  0  0  0  0
    0.7995    2.0218    1.4863 N   0  0  0  0  0  0  0  0  0  0  0  0
    0.6991   -0.3032    2.2100 C   0  0  0  0  0  0  0  0  0  0  0  0
    0.4112    4.2222    0.5831 C   0  0  0  0  0  0  0  0  0  0  0  0
    1.1345   -0.2229    3.5407 C   0  0  0  0  0  0  0  0  0  0  0  0
    0.8094   -1.5203    1.5130 C   0  0  0  0  0  0  0  0  0  0  0  0
    1.6952    4.6236    0.9923 C   0  0  0  0  0  0  0  0  0  0  0  0
   -0.4177    5.1407   -0.0784 C   0  0  0  0  0  0  0  0  0  0  0  0
    1.6174   -1.3566    4.1938 C   0  0  0  0  0  0  0  0  0  0  0  0
    1.2573   -2.6601    2.1875 C   0  0  0  0  0  0  0  0  0  0  0  0
    0.4135   -1.5363    0.1945 O   0  0  0  0  0  0  0  0  0  0  0  0
    2.1437    5.9221    0.7418 C   0  0  0  0  0  0  0  0  0  0  0  0
    0.0376    6.4399   -0.3282 C   0  0  0  0  0  0  0  0  0  0  0  0
    1.6669   -2.5748    3.5205 C   0  0  0  0  0  0  0  0  0  0  0  0
    1.2345   -2.3132   -0.6953 C   0  0  0  0  0  0  0  0  0  0  0  0
    1.3124    6.8252    0.0850 C   0  0  0  0  0  0  0  0  0  0  0  0
    2.5835   -1.6689   -0.9477 C   0  0  0  0  0  0  0  0  0  0  0  0
    1.9154    8.5849   -0.2493 Br  0  0  0  0  0  0  0  0  0  0  0  0
    2.6954   -0.2886   -1.1803 C   0  0  0  0  0  0  0  0  0  0  0  0
    3.7434   -2.4576   -0.9797 C   0  0  0  0  0  0  0  0  0  0  0  0
    3.9430    0.2968   -1.4067 C   0  0  0  0  0  0  0  0  0  0  0  0
    4.9905   -1.8742   -1.2126 C   0  0  0  0  0  0  0  0  0  0  0  0
    5.0857   -0.4999   -1.4213 C   0  0  0  0  0  0  0  0  0  0  0  0
    6.6239    0.2227   -1.7023 Cl  0  0  0  0  0  0  0  0  0  0  0  0
   -4.3645   -1.1118   -0.0361 H   0  0  0  0  0  0  0  0  0  0  0  0
   -2.0558   -0.1712   -1.0681 H   0  0  0  0  0  0  0  0  0  0  0  0
   -1.5244   -1.4556   -0.1512 H   0  0  0  0  0  0  0  0  0  0  0  0
   -2.2020   -0.7181    1.8342 H   0  0  0  0  0  0  0  0  0  0  0  0
   -3.2511    0.5084    1.0962 H   0  0  0  0  0  0  0  0  0  0  0  0
   -3.8477   -0.8450   -2.4236 H   0  0  0  0  0  0  0  0  0  0  0  0
   -2.7658   -2.5916   -3.7768 H   0  0  0  0  0  0  0  0  0  0  0  0
   -2.4009   -3.5415   -2.3336 H   0  0  0  0  0  0  0  0  0  0  0  0
   -1.6326   -1.9638   -2.5805 H   0  0  0  0  0  0  0  0  0  0  0  0
   -5.8781   -2.1135   -1.7860 H   0  0  0  0  0  0  0  0  0  0  0  0
   -5.2244   -2.6358   -3.3423 H   0  0  0  0  0  0  0  0  0  0  0  0
   -4.9761   -3.6359   -1.9112 H   0  0  0  0  0  0  0  0  0  0  0  0
   -2.0281    2.8622    0.0791 H   0  0  0  0  0  0  0  0  0  0  0  0
    1.0805    0.7222    4.0798 H   0  0  0  0  0  0  0  0  0  0  0  0
    2.3618    3.9303    1.5050 H   0  0  0  0  0  0  0  0  0  0  0  0
   -1.4172    4.8842   -0.4162 H   0  0  0  0  0  0  0  0  0  0  0  0
    1.9387   -1.2952    5.2304 H   0  0  0  0  0  0  0  0  0  0  0  0
    1.2603   -3.6382    1.7146 H   0  0  0  0  0  0  0  0  0  0  0  0
    3.1393    6.2159    1.0697 H   0  0  0  0  0  0  0  0  0  0  0  0
   -0.6106    7.1445   -0.8447 H   0  0  0  0  0  0  0  0  0  0  0  0
    2.0078   -3.4663    4.0401 H   0  0  0  0  0  0  0  0  0  0  0  0
    0.7061   -2.3563   -1.6565 H   0  0  0  0  0  0  0  0  0  0  0  0
    1.3212   -3.3527   -0.3624 H   0  0  0  0  0  0  0  0  0  0  0  0
    1.8131    0.3470   -1.1592 H   0  0  0  0  0  0  0  0  0  0  0  0
    3.6858   -3.5302   -0.8107 H   0  0  0  0  0  0  0  0  0  0  0  0
    4.0173    1.3710   -1.5620 H   0  0  0  0  0  0  0  0  0  0  0  0
    5.8825   -2.4971   -1.2283 H   0  0  0  0  0  0  0  0  0  0  0  0
  1  2  1  0
  2  3  1  0
  1  4  1  0
  5  1  1  0
  4  6  2  0
  4  7  1  0
  8  5  1  0
  5  9  1  0
  3 10  1  0
 10 11  2  0
 12 10  1  0
 11 13  1  0
 14 12  2  0
 12 15  1  0
 13 16  1  0
 13 14  1  0
 15 17  2  0
 18 15  1  0
 16 19  2  0
 20 16  1  0
 17 21  1  0
 22 18  2  0
 18 23  1  0
 19 24  1  0
 25 20  2  0
 21 26  2  0
 26 22  1  0
 23 27  1  0
 24 28  2  0
 28 25  1  0
 27 29  1  0
 28 30  1  0
 29 31  2  0
 32 29  1  0
 31 33  1  0
 34 32  2  0
 33 35  2  0
 35 34  1  0
 35 36  1  0
  1 37  1  1
  2 38  1  0
  2 39  1  0
  3 40  1  0
  3 41  1  0
  5 42  1  0
  8 43  1  0
  8 44  1  0
  8 45  1  0
  9 46  1  0
  9 47  1  0
  9 48  1  0
 11 49  1  0
 17 50  1  0
 19 51  1  0
 20 52  1  0
 21 53  1  0
 22 54  1  0
 24 55  1  0
 25 56  1  0
 26 57  1  0
 27 58  1  0
 27 59  1  0
 31 60  1  0
 32 61  1  0
 33 62  1  0
 34 63  1  0
M  CHG  2   2   1   7  -1
M  END
>  <SMILES_raw>  (100) 
CC(C)[C@@H](C(O)=O)NCC1=CN(C2=CC=C(Br)C=C2)N=C1C3=CC=CC=C3OCC4=CC=C(Cl)C=C4

>  <Protonation_Method>  (100) 
MolScrub

>  <Target_pH>  (100) 
7.4

$$$$
N-((1-(4-bromophenyl)-3-(2-((4-chlorobenzyl)oxy)phenyl)-1H-pyrazol-4-yl)methyl)-L-glycin
     RDKit          3D

 54 57  0  0  0  0  0  0  0  0999 V2000
   -3.3002    3.3588   -0.9985 C   0  0  0  0  0  0  0  0  0  0  0  0
   -2.8641    2.1980   -0.1180 N   0  0  0  0  0  0  0  0  0  0  0  0
   -1.5545    1.6135   -0.4781 C   0  0  0  0  0  0  0  0  0  0  0  0
   -4.0856    2.8207   -2.2243 C   0  0  0  0  0  0  0  0  0  0  0  0
   -4.3470    1.5833   -2.0636 O   0  0  0  0  0  0  0  0  0  0  0  0
   -4.3144    3.6257   -3.1510 O   0  0  0  0  0  0  0  0  0  0  0  0
   -1.4314    0.2377    0.0627 C   0  0  0  0  0  0  0  0  0  0  0  0
   -2.1196   -0.8815   -0.3664 C   0  0  0  0  0  0  0  0  0  0  0  0
   -0.6212   -0.2354    1.1299 C   0  0  0  0  0  0  0  0  0  0  0  0
   -1.7170   -1.9411    0.4134 N   0  0  0  0  0  0  0  0  0  0  0  0
   -0.8216   -1.5400    1.3484 N   0  0  0  0  0  0  0  0  0  0  0  0
    0.3030    0.5194    1.9693 C   0  0  0  0  0  0  0  0  0  0  0  0
   -2.1332   -3.2998    0.3356 C   0  0  0  0  0  0  0  0  0  0  0  0
    0.1223    0.5196    3.3594 C   0  0  0  0  0  0  0  0  0  0  0  0
    1.3641    1.2582    1.4264 C   0  0  0  0  0  0  0  0  0  0  0  0
   -3.0632   -3.7231   -0.6261 C   0  0  0  0  0  0  0  0  0  0  0  0
   -1.5988   -4.2358    1.2373 C   0  0  0  0  0  0  0  0  0  0  0  0
    0.9609    1.2751    4.1819 C   0  0  0  0  0  0  0  0  0  0  0  0
    2.1876    2.0344    2.2449 C   0  0  0  0  0  0  0  0  0  0  0  0
    1.6120    1.2746    0.0779 O   0  0  0  0  0  0  0  0  0  0  0  0
   -3.4517   -5.0666   -0.6802 C   0  0  0  0  0  0  0  0  0  0  0  0
   -1.9910   -5.5761    1.1793 C   0  0  0  0  0  0  0  0  0  0  0  0
    1.9884    2.0355    3.6245 C   0  0  0  0  0  0  0  0  0  0  0  0
    2.4435    0.1631   -0.2935 C   0  0  0  0  0  0  0  0  0  0  0  0
   -2.9152   -5.9849    0.2207 C   0  0  0  0  0  0  0  0  0  0  0  0
    3.5448    0.6807   -1.1836 C   0  0  0  0  0  0  0  0  0  0  0  0
   -3.4414   -7.7992    0.1388 Br  0  0  0  0  0  0  0  0  0  0  0  0
    4.8066    0.9806   -0.6477 C   0  0  0  0  0  0  0  0  0  0  0  0
    3.3121    0.9047   -2.5486 C   0  0  0  0  0  0  0  0  0  0  0  0
    5.8236    1.4775   -1.4671 C   0  0  0  0  0  0  0  0  0  0  0  0
    4.3295    1.4021   -3.3670 C   0  0  0  0  0  0  0  0  0  0  0  0
    5.5806    1.6855   -2.8229 C   0  0  0  0  0  0  0  0  0  0  0  0
    6.8319    2.3019   -3.8294 Cl  0  0  0  0  0  0  0  0  0  0  0  0
   -3.9641    3.9739   -0.3840 H   0  0  0  0  0  0  0  0  0  0  0  0
   -2.4101    3.9273   -1.2815 H   0  0  0  0  0  0  0  0  0  0  0  0
   -3.5751    1.4908   -0.4141 H   0  0  0  0  0  0  0  0  0  0  0  0
   -2.9875    2.3682    0.8795 H   0  0  0  0  0  0  0  0  0  0  0  0
   -1.4735    1.5964   -1.5717 H   0  0  0  0  0  0  0  0  0  0  0  0
   -0.8006    2.2993   -0.0852 H   0  0  0  0  0  0  0  0  0  0  0  0
   -2.8494   -0.9900   -1.1582 H   0  0  0  0  0  0  0  0  0  0  0  0
   -0.6750   -0.0704    3.8075 H   0  0  0  0  0  0  0  0  0  0  0  0
   -3.5042   -3.0423   -1.3495 H   0  0  0  0  0  0  0  0  0  0  0  0
   -0.8762   -3.9367    1.9946 H   0  0  0  0  0  0  0  0  0  0  0  0
    0.8078    1.2767    5.2593 H   0  0  0  0  0  0  0  0  0  0  0  0
    2.9922    2.6226    1.8107 H   0  0  0  0  0  0  0  0  0  0  0  0
   -4.1730   -5.3854   -1.4297 H   0  0  0  0  0  0  0  0  0  0  0  0
   -1.5723   -6.2871    1.8863 H   0  0  0  0  0  0  0  0  0  0  0  0
    2.6359    2.6277    4.2666 H   0  0  0  0  0  0  0  0  0  0  0  0
    2.8738   -0.3687    0.5678 H   0  0  0  0  0  0  0  0  0  0  0  0
    1.8296   -0.5594   -0.8445 H   0  0  0  0  0  0  0  0  0  0  0  0
    5.0063    0.8267    0.4114 H   0  0  0  0  0  0  0  0  0  0  0  0
    2.3373    0.6936   -2.9835 H   0  0  0  0  0  0  0  0  0  0  0  0
    6.7987    1.7016   -1.0422 H   0  0  0  0  0  0  0  0  0  0  0  0
    4.1394    1.5683   -4.4237 H   0  0  0  0  0  0  0  0  0  0  0  0
  1  2  1  0
  2  3  1  0
  1  4  1  0
  4  5  2  0
  4  6  1  0
  3  7  1  0
  7  8  2  0
  9  7  1  0
  8 10  1  0
 11  9  2  0
  9 12  1  0
 10 13  1  0
 10 11  1  0
 12 14  2  0
 15 12  1  0
 13 16  2  0
 17 13  1  0
 14 18  1  0
 19 15  2  0
 15 20  1  0
 16 21  1  0
 22 17  2  0
 18 23  2  0
 23 19  1  0
 20 24  1  0
 21 25  2  0
 25 22  1  0
 24 26  1  0
 25 27  1  0
 26 28  2  0
 29 26  1  0
 28 30  1  0
 31 29  2  0
 30 32  2  0
 32 31  1  0
 32 33  1  0
  1 34  1  0
  1 35  1  0
  2 36  1  0
  2 37  1  0
  3 38  1  0
  3 39  1  0
  8 40  1  0
 14 41  1  0
 16 42  1  0
 17 43  1  0
 18 44  1  0
 19 45  1  0
 21 46  1  0
 22 47  1  0
 23 48  1  0
 24 49  1  0
 24 50  1  0
 28 51  1  0
 29 52  1  0
 30 53  1  0
 31 54  1  0
M  CHG  2   2   1   6  -1
M  END
>  <SMILES_raw>  (101) 
O=C(O)CNCC1=CN(C2=CC=C(Br)C=C2)N=C1C3=CC=CC=C3OCC4=CC=C(Cl)C=C4

>  <Protonation_Method>  (101) 
MolScrub

>  <Target_pH>  (101) 
7.4

$$$$
N-((1-(4-bromophenyl)-3-(2-((4-chlorobenzyl)oxy)phenyl)-1H-pyrazol-4-yl)methyl)-L-leucin
     RDKit          3D

 66 69  0  0  0  0  0  0  0  0999 V2000
   -2.0507   -1.4769   -0.6728 C   0  0  2  0  0  0  0  0  0  0  0  0
   -0.7719   -1.0575   -1.4232 N   0  0  0  0  0  0  0  0  0  0  0  0
   -0.8848    0.1867   -2.2287 C   0  0  0  0  0  0  0  0  0  0  0  0
   -2.2787   -0.5574    0.5610 C   0  0  0  0  0  0  0  0  0  0  0  0
   -1.8364   -2.9409   -0.2546 C   0  0  0  0  0  0  0  0  0  0  0  0
   -3.4070   -0.0108    0.6347 O   0  0  0  0  0  0  0  0  0  0  0  0
   -1.2158   -0.3856    1.2292 O   0  0  0  0  0  0  0  0  0  0  0  0
   -3.0285   -3.6844    0.3866 C   0  0  0  0  0  0  0  0  0  0  0  0
   -4.3267   -3.5268   -0.4032 C   0  0  0  0  0  0  0  0  0  0  0  0
   -3.2431   -3.3324    1.8586 C   0  0  0  0  0  0  0  0  0  0  0  0
   -0.5083    1.4227   -1.5039 C   0  0  0  0  0  0  0  0  0  0  0  0
   -1.3256    2.2370   -0.7470 C   0  0  0  0  0  0  0  0  0  0  0  0
    0.7681    2.0444   -1.4222 C   0  0  0  0  0  0  0  0  0  0  0  0
   -0.5336    3.2058   -0.1769 N   0  0  0  0  0  0  0  0  0  0  0  0
    0.7218    3.1660   -0.6939 N   0  0  0  0  0  0  0  0  0  0  0  0
    2.0186    1.6109   -2.0326 C   0  0  0  0  0  0  0  0  0  0  0  0
   -0.8953    4.1704    0.8036 C   0  0  0  0  0  0  0  0  0  0  0  0
    2.6780    2.4702   -2.9225 C   0  0  0  0  0  0  0  0  0  0  0  0
    2.5780    0.3524   -1.7667 C   0  0  0  0  0  0  0  0  0  0  0  0
   -2.1556    4.1401    1.4179 C   0  0  0  0  0  0  0  0  0  0  0  0
    0.0339    5.1533    1.1820 C   0  0  0  0  0  0  0  0  0  0  0  0
    3.8492    2.0619   -3.5655 C   0  0  0  0  0  0  0  0  0  0  0  0
    3.7327   -0.0675   -2.4326 C   0  0  0  0  0  0  0  0  0  0  0  0
    2.0036   -0.5293   -0.8847 O   0  0  0  0  0  0  0  0  0  0  0  0
   -2.4840    5.0894    2.3909 C   0  0  0  0  0  0  0  0  0  0  0  0
   -0.2999    6.1015    2.1531 C   0  0  0  0  0  0  0  0  0  0  0  0
    4.3701    0.7905   -3.3274 C   0  0  0  0  0  0  0  0  0  0  0  0
    2.4253   -0.2340    0.4639 C   0  0  0  0  0  0  0  0  0  0  0  0
   -1.5563    6.0643    2.7532 C   0  0  0  0  0  0  0  0  0  0  0  0
    2.5918   -1.5507    1.1824 C   0  0  0  0  0  0  0  0  0  0  0  0
   -2.0037    7.3411    4.0731 Br  0  0  0  0  0  0  0  0  0  0  0  0
    3.7212   -2.3500    0.9451 C   0  0  0  0  0  0  0  0  0  0  0  0
    1.6154   -2.0058    2.0799 C   0  0  0  0  0  0  0  0  0  0  0  0
    3.8701   -3.5784    1.5927 C   0  0  0  0  0  0  0  0  0  0  0  0
    1.7609   -3.2363    2.7240 C   0  0  0  0  0  0  0  0  0  0  0  0
    2.8867   -4.0181    2.4775 C   0  0  0  0  0  0  0  0  0  0  0  0
    3.0684   -5.5340    3.2699 Cl  0  0  0  0  0  0  0  0  0  0  0  0
   -2.8659   -1.3959   -1.3992 H   0  0  0  0  0  0  0  0  0  0  0  0
   -0.3635   -1.8230   -1.9589 H   0  0  0  0  0  0  0  0  0  0  0  0
   -0.1063   -0.8565   -0.6499 H   0  0  0  0  0  0  0  0  0  0  0  0
   -0.2268    0.0414   -3.0930 H   0  0  0  0  0  0  0  0  0  0  0  0
   -1.9062    0.2457   -2.6205 H   0  0  0  0  0  0  0  0  0  0  0  0
   -1.5600   -3.5105   -1.1532 H   0  0  0  0  0  0  0  0  0  0  0  0
   -0.9720   -3.0163    0.4186 H   0  0  0  0  0  0  0  0  0  0  0  0
   -2.7674   -4.7518    0.3638 H   0  0  0  0  0  0  0  0  0  0  0  0
   -5.1039   -4.1831    0.0028 H   0  0  0  0  0  0  0  0  0  0  0  0
   -4.1793   -3.7983   -1.4527 H   0  0  0  0  0  0  0  0  0  0  0  0
   -4.7070   -2.5015   -0.3631 H   0  0  0  0  0  0  0  0  0  0  0  0
   -3.9466   -4.0373    2.3167 H   0  0  0  0  0  0  0  0  0  0  0  0
   -2.3035   -3.3936    2.4182 H   0  0  0  0  0  0  0  0  0  0  0  0
   -3.6616   -2.3320    1.9909 H   0  0  0  0  0  0  0  0  0  0  0  0
   -2.3788    2.1571   -0.5157 H   0  0  0  0  0  0  0  0  0  0  0  0
    2.2778    3.4639   -3.1183 H   0  0  0  0  0  0  0  0  0  0  0  0
   -2.8947    3.3754    1.1860 H   0  0  0  0  0  0  0  0  0  0  0  0
    1.0222    5.1940    0.7282 H   0  0  0  0  0  0  0  0  0  0  0  0
    4.3539    2.7381   -4.2520 H   0  0  0  0  0  0  0  0  0  0  0  0
    4.1479   -1.0534   -2.2421 H   0  0  0  0  0  0  0  0  0  0  0  0
   -3.4612    5.0474    2.8670 H   0  0  0  0  0  0  0  0  0  0  0  0
    0.4289    6.8559    2.4369 H   0  0  0  0  0  0  0  0  0  0  0  0
    5.2792    0.4731   -3.8325 H   0  0  0  0  0  0  0  0  0  0  0  0
    1.6565    0.3781    0.9484 H   0  0  0  0  0  0  0  0  0  0  0  0
    3.3736    0.3209    0.5038 H   0  0  0  0  0  0  0  0  0  0  0  0
    4.4965   -2.0132    0.2599 H   0  0  0  0  0  0  0  0  0  0  0  0
    0.7331   -1.4017    2.2930 H   0  0  0  0  0  0  0  0  0  0  0  0
    4.7536   -4.1847    1.4063 H   0  0  0  0  0  0  0  0  0  0  0  0
    0.9935   -3.5703    3.4181 H   0  0  0  0  0  0  0  0  0  0  0  0
  1  2  1  0
  2  3  1  0
  1  4  1  0
  5  1  1  0
  4  6  2  0
  4  7  1  0
  8  5  1  0
  9  8  1  0
  8 10  1  0
  3 11  1  0
 11 12  2  0
 13 11  1  0
 12 14  1  0
 15 13  2  0
 13 16  1  0
 14 17  1  0
 14 15  1  0
 16 18  2  0
 19 16  1  0
 17 20  2  0
 21 17  1  0
 18 22  1  0
 23 19  2  0
 19 24  1  0
 20 25  1  0
 26 21  2  0
 22 27  2  0
 27 23  1  0
 24 28  1  0
 25 29  2  0
 29 26  1  0
 28 30  1  0
 29 31  1  0
 30 32  2  0
 33 30  1  0
 32 34  1  0
 35 33  2  0
 34 36  2  0
 36 35  1  0
 36 37  1  0
  1 38  1  6
  2 39  1  0
  2 40  1  0
  3 41  1  0
  3 42  1  0
  5 43  1  0
  5 44  1  0
  8 45  1  0
  9 46  1  0
  9 47  1  0
  9 48  1  0
 10 49  1  0
 10 50  1  0
 10 51  1  0
 12 52  1  0
 18 53  1  0
 20 54  1  0
 21 55  1  0
 22 56  1  0
 23 57  1  0
 25 58  1  0
 26 59  1  0
 27 60  1  0
 28 61  1  0
 28 62  1  0
 32 63  1  0
 33 64  1  0
 34 65  1  0
 35 66  1  0
M  CHG  2   2   1   7  -1
M  END
>  <SMILES_raw>  (102) 
CC(C)C[C@@H](C(O)=O)NCC1=CN(C2=CC=C(Br)C=C2)N=C1C3=CC=CC=C3OCC4=CC=C(Cl)C=C4

>  <Protonation_Method>  (102) 
MolScrub

>  <Target_pH>  (102) 
7.4

$$$$
N-((1-(4-bromophenyl)-3-(2-((4-chlorobenzyl)oxy)phenyl)-1H-pyrazol-4-yl)methyl)-L-isoleucin
     RDKit          3D

 66 69  0  0  0  0  0  0  0  0999 V2000
   -2.4229   -1.0624    0.3315 C   0  0  2  0  0  0  0  0  0  0  0  0
   -1.1438   -1.1915   -0.5238 N   0  0  0  0  0  0  0  0  0  0  0  0
   -1.0298   -0.2701   -1.6754 C   0  0  0  0  0  0  0  0  0  0  0  0
   -2.0807   -0.1829    1.5804 C   0  0  0  0  0  0  0  0  0  0  0  0
   -2.9028   -2.4845    0.7083 C   0  0  2  0  0  0  0  0  0  0  0  0
   -2.9929    0.5495    2.0271 O   0  0  0  0  0  0  0  0  0  0  0  0
   -0.8401   -0.2644    1.8509 O   0  0  0  0  0  0  0  0  0  0  0  0
   -3.3586   -3.2600   -0.5543 C   0  0  0  0  0  0  0  0  0  0  0  0
   -4.0443   -2.4357    1.7353 C   0  0  0  0  0  0  0  0  0  0  0  0
   -3.6348   -4.7372   -0.3009 C   0  0  0  0  0  0  0  0  0  0  0  0
   -0.5875    1.0974   -1.3127 C   0  0  0  0  0  0  0  0  0  0  0  0
   -1.2959    2.0625   -0.6246 C   0  0  0  0  0  0  0  0  0  0  0  0
    0.6628    1.7198   -1.5891 C   0  0  0  0  0  0  0  0  0  0  0  0
   -0.4554    3.1343   -0.4281 N   0  0  0  0  0  0  0  0  0  0  0  0
    0.6943    2.9771   -1.1300 N   0  0  0  0  0  0  0  0  0  0  0  0
    1.8108    1.1639   -2.2988 C   0  0  0  0  0  0  0  0  0  0  0  0
   -0.6863    4.2964    0.3583 C   0  0  0  0  0  0  0  0  0  0  0  0
    2.3289    1.8526   -3.4048 C   0  0  0  0  0  0  0  0  0  0  0  0
    2.4082   -0.0475   -1.9180 C   0  0  0  0  0  0  0  0  0  0  0  0
   -1.8107    4.3935    1.1911 C   0  0  0  0  0  0  0  0  0  0  0  0
    0.2392    5.3521    0.3207 C   0  0  0  0  0  0  0  0  0  0  0  0
    3.3875    1.3177   -4.1430 C   0  0  0  0  0  0  0  0  0  0  0  0
    3.4476   -0.5974   -2.6737 C   0  0  0  0  0  0  0  0  0  0  0  0
    1.9757   -0.7678   -0.8316 O   0  0  0  0  0  0  0  0  0  0  0  0
   -2.0149    5.5438    1.9606 C   0  0  0  0  0  0  0  0  0  0  0  0
    0.0304    6.4993    1.0908 C   0  0  0  0  0  0  0  0  0  0  0  0
    3.9382    0.0882   -3.7848 C   0  0  0  0  0  0  0  0  0  0  0  0
    2.5673   -0.2545    0.3793 C   0  0  0  0  0  0  0  0  0  0  0  0
   -1.0965    6.5908    1.9050 C   0  0  0  0  0  0  0  0  0  0  0  0
    2.9132   -1.4319    1.2592 C   0  0  0  0  0  0  0  0  0  0  0  0
   -1.3760    8.1425    2.9473 Br  0  0  0  0  0  0  0  0  0  0  0  0
    4.0004   -2.2613    0.9396 C   0  0  0  0  0  0  0  0  0  0  0  0
    2.1574   -1.7184    2.4046 C   0  0  0  0  0  0  0  0  0  0  0  0
    4.3190   -3.3576    1.7455 C   0  0  0  0  0  0  0  0  0  0  0  0
    2.4744   -2.8152    3.2104 C   0  0  0  0  0  0  0  0  0  0  0  0
    3.5523   -3.6313    2.8768 C   0  0  0  0  0  0  0  0  0  0  0  0
    3.9448   -4.9825    3.8672 Cl  0  0  0  0  0  0  0  0  0  0  0  0
   -3.1758   -0.5554   -0.2841 H   0  0  0  0  0  0  0  0  0  0  0  0
   -0.8895   -2.1538   -0.7430 H   0  0  0  0  0  0  0  0  0  0  0  0
   -0.4231   -0.9000    0.1825 H   0  0  0  0  0  0  0  0  0  0  0  0
   -2.0013   -0.2507   -2.1821 H   0  0  0  0  0  0  0  0  0  0  0  0
   -0.3309   -0.7434   -2.3717 H   0  0  0  0  0  0  0  0  0  0  0  0
   -2.0660   -3.0258    1.1715 H   0  0  0  0  0  0  0  0  0  0  0  0
   -2.5942   -3.2049   -1.3368 H   0  0  0  0  0  0  0  0  0  0  0  0
   -4.2591   -2.7933   -0.9729 H   0  0  0  0  0  0  0  0  0  0  0  0
   -3.7253   -1.9572    2.6660 H   0  0  0  0  0  0  0  0  0  0  0  0
   -4.9048   -1.8825    1.3429 H   0  0  0  0  0  0  0  0  0  0  0  0
   -4.3824   -3.4394    2.0099 H   0  0  0  0  0  0  0  0  0  0  0  0
   -2.7781   -5.2216    0.1779 H   0  0  0  0  0  0  0  0  0  0  0  0
   -3.8227   -5.2477   -1.2517 H   0  0  0  0  0  0  0  0  0  0  0  0
   -4.5178   -4.8843    0.3283 H   0  0  0  0  0  0  0  0  0  0  0  0
   -2.2951    2.0506   -0.2129 H   0  0  0  0  0  0  0  0  0  0  0  0
    1.9064    2.8127   -3.6950 H   0  0  0  0  0  0  0  0  0  0  0  0
   -2.5318    3.5835    1.2920 H   0  0  0  0  0  0  0  0  0  0  0  0
    1.1285    5.2953   -0.3046 H   0  0  0  0  0  0  0  0  0  0  0  0
    3.7807    1.8639   -4.9972 H   0  0  0  0  0  0  0  0  0  0  0  0
    3.8821   -1.5527   -2.3923 H   0  0  0  0  0  0  0  0  0  0  0  0
   -2.8846    5.6013    2.6108 H   0  0  0  0  0  0  0  0  0  0  0  0
    0.7534    7.3101    1.0505 H   0  0  0  0  0  0  0  0  0  0  0  0
    4.7579   -0.3299   -4.3646 H   0  0  0  0  0  0  0  0  0  0  0  0
    3.4784    0.3334    0.1962 H   0  0  0  0  0  0  0  0  0  0  0  0
    1.8381    0.3985    0.8717 H   0  0  0  0  0  0  0  0  0  0  0  0
    4.6117   -2.0498    0.0646 H   0  0  0  0  0  0  0  0  0  0  0  0
    1.3188   -1.0824    2.6886 H   0  0  0  0  0  0  0  0  0  0  0  0
    5.1675   -3.9876    1.4899 H   0  0  0  0  0  0  0  0  0  0  0  0
    1.8806   -3.0142    4.0984 H   0  0  0  0  0  0  0  0  0  0  0  0
  1  2  1  0
  2  3  1  0
  1  4  1  0
  5  1  1  0
  4  6  2  0
  4  7  1  0
  8  5  1  0
  5  9  1  0
 10  8  1  0
  3 11  1  0
 11 12  2  0
 13 11  1  0
 12 14  1  0
 15 13  2  0
 13 16  1  0
 14 17  1  0
 14 15  1  0
 16 18  2  0
 19 16  1  0
 17 20  2  0
 21 17  1  0
 18 22  1  0
 23 19  2  0
 19 24  1  0
 20 25  1  0
 26 21  2  0
 22 27  2  0
 27 23  1  0
 24 28  1  0
 25 29  2  0
 29 26  1  0
 28 30  1  0
 29 31  1  0
 30 32  2  0
 33 30  1  0
 32 34  1  0
 35 33  2  0
 34 36  2  0
 36 35  1  0
 36 37  1  0
  1 38  1  6
  2 39  1  0
  2 40  1  0
  3 41  1  0
  3 42  1  0
  5 43  1  1
  8 44  1  0
  8 45  1  0
  9 46  1  0
  9 47  1  0
  9 48  1  0
 10 49  1  0
 10 50  1  0
 10 51  1  0
 12 52  1  0
 18 53  1  0
 20 54  1  0
 21 55  1  0
 22 56  1  0
 23 57  1  0
 25 58  1  0
 26 59  1  0
 27 60  1  0
 28 61  1  0
 28 62  1  0
 32 63  1  0
 33 64  1  0
 34 65  1  0
 35 66  1  0
M  CHG  2   2   1   7  -1
M  END
>  <SMILES_raw>  (103) 
CC[C@H](C)[C@@H](C(O)=O)NCC1=CN(C2=CC=C(Br)C=C2)N=C1C3=CC=CC=C3OCC4=CC=C(Cl)C=C4

>  <Protonation_Method>  (103) 
MolScrub

>  <Target_pH>  (103) 
7.4

$$$$
N-((1-(4-bromophenyl)-3-(2-((4-chlorobenzyl)oxy)phenyl)-1H-pyrazol-4-yl)methyl)-L-tyrosin
     RDKit          3D

 68 72  0  0  0  0  0  0  0  0999 V2000
    3.2504   -1.0664    0.2385 C   0  0  2  0  0  0  0  0  0  0  0  0
    2.2606   -0.1060    0.9120 N   0  0  0  0  0  0  0  0  0  0  0  0
    1.1553   -0.7429    1.6474 C   0  0  0  0  0  0  0  0  0  0  0  0
    4.3623   -1.4657    1.2494 C   0  0  0  0  0  0  0  0  0  0  0  0
    3.8592   -0.4294   -1.0188 C   0  0  0  0  0  0  0  0  0  0  0  0
    5.1834   -2.3373    0.8923 O   0  0  0  0  0  0  0  0  0  0  0  0
    4.2249   -0.8120    2.3357 O   0  0  0  0  0  0  0  0  0  0  0  0
    4.2758    1.0194   -0.8697 C   0  0  0  0  0  0  0  0  0  0  0  0
    5.4052    1.3645   -0.1127 C   0  0  0  0  0  0  0  0  0  0  0  0
    3.5315    2.0404   -1.4778 C   0  0  0  0  0  0  0  0  0  0  0  0
    5.7702    2.7023    0.0576 C   0  0  0  0  0  0  0  0  0  0  0  0
    3.8915    3.3771   -1.3050 C   0  0  0  0  0  0  0  0  0  0  0  0
    5.0056    3.6969   -0.5373 C   0  0  0  0  0  0  0  0  0  0  0  0
    5.3176    5.0156   -0.3931 O   0  0  0  0  0  0  0  0  0  0  0  0
    0.0682   -1.2716    0.7839 C   0  0  0  0  0  0  0  0  0  0  0  0
   -0.4178   -2.5667    0.7882 C   0  0  0  0  0  0  0  0  0  0  0  0
   -0.6939   -0.6153   -0.2271 C   0  0  0  0  0  0  0  0  0  0  0  0
   -1.4133   -2.6424   -0.1583 N   0  0  0  0  0  0  0  0  0  0  0  0
   -1.5656   -1.4601   -0.7941 N   0  0  0  0  0  0  0  0  0  0  0  0
   -0.5779    0.7553   -0.7305 C   0  0  0  0  0  0  0  0  0  0  0  0
   -2.2127   -3.7661   -0.5049 C   0  0  0  0  0  0  0  0  0  0  0  0
   -0.4420    0.9475   -2.1169 C   0  0  0  0  0  0  0  0  0  0  0  0
   -0.5844    1.8808    0.1107 C   0  0  0  0  0  0  0  0  0  0  0  0
   -3.2358   -3.6165   -1.4577 C   0  0  0  0  0  0  0  0  0  0  0  0
   -1.9950   -5.0229    0.0807 C   0  0  0  0  0  0  0  0  0  0  0  0
   -0.2678    2.2264   -2.6477 C   0  0  0  0  0  0  0  0  0  0  0  0
   -0.3679    3.1566   -0.4212 C   0  0  0  0  0  0  0  0  0  0  0  0
   -0.7245    1.7048    1.4645 O   0  0  0  0  0  0  0  0  0  0  0  0
   -4.0345   -4.7059   -1.8159 C   0  0  0  0  0  0  0  0  0  0  0  0
   -2.7857   -6.1142   -0.2950 C   0  0  0  0  0  0  0  0  0  0  0  0
   -0.2175    3.3283   -1.7973 C   0  0  0  0  0  0  0  0  0  0  0  0
   -1.8379    2.4174    2.0348 C   0  0  0  0  0  0  0  0  0  0  0  0
   -3.7999   -5.9518   -1.2386 C   0  0  0  0  0  0  0  0  0  0  0  0
   -3.1736    1.8030    1.6786 C   0  0  0  0  0  0  0  0  0  0  0  0
   -4.8625   -7.4317   -1.7416 Br  0  0  0  0  0  0  0  0  0  0  0  0
   -3.4195    0.4439    1.9307 C   0  0  0  0  0  0  0  0  0  0  0  0
   -4.1877    2.5837    1.1063 C   0  0  0  0  0  0  0  0  0  0  0  0
   -4.6504   -0.1260    1.5937 C   0  0  0  0  0  0  0  0  0  0  0  0
   -5.4255    2.0169    0.7821 C   0  0  0  0  0  0  0  0  0  0  0  0
   -5.6491    0.6637    1.0290 C   0  0  0  0  0  0  0  0  0  0  0  0
   -7.1665   -0.0422    0.6363 Cl  0  0  0  0  0  0  0  0  0  0  0  0
    2.6949   -1.9707   -0.0389 H   0  0  0  0  0  0  0  0  0  0  0  0
    1.9849    0.6942    0.3406 H   0  0  0  0  0  0  0  0  0  0  0  0
    2.8881    0.2681    1.6611 H   0  0  0  0  0  0  0  0  0  0  0  0
    0.7685    0.0049    2.3453 H   0  0  0  0  0  0  0  0  0  0  0  0
    1.5854   -1.5445    2.2618 H   0  0  0  0  0  0  0  0  0  0  0  0
    3.1204   -0.5001   -1.8278 H   0  0  0  0  0  0  0  0  0  0  0  0
    4.7260   -1.0066   -1.3680 H   0  0  0  0  0  0  0  0  0  0  0  0
    6.0195    0.5932    0.3528 H   0  0  0  0  0  0  0  0  0  0  0  0
    2.6707    1.8038   -2.0963 H   0  0  0  0  0  0  0  0  0  0  0  0
    6.6511    2.9367    0.6490 H   0  0  0  0  0  0  0  0  0  0  0  0
    3.3117    4.1657   -1.7763 H   0  0  0  0  0  0  0  0  0  0  0  0
    6.1331    5.0835    0.1317 H   0  0  0  0  0  0  0  0  0  0  0  0
   -0.1342   -3.4179    1.3900 H   0  0  0  0  0  0  0  0  0  0  0  0
   -0.4735    0.0934   -2.7939 H   0  0  0  0  0  0  0  0  0  0  0  0
   -3.4295   -2.6536   -1.9294 H   0  0  0  0  0  0  0  0  0  0  0  0
   -1.2160   -5.1987    0.8166 H   0  0  0  0  0  0  0  0  0  0  0  0
   -0.1677    2.3600   -3.7215 H   0  0  0  0  0  0  0  0  0  0  0  0
   -0.3007    4.0269    0.2245 H   0  0  0  0  0  0  0  0  0  0  0  0
   -4.8251   -4.5699   -2.5503 H   0  0  0  0  0  0  0  0  0  0  0  0
   -2.5852   -7.0932    0.1389 H   0  0  0  0  0  0  0  0  0  0  0  0
   -0.0519    4.3226   -2.2064 H   0  0  0  0  0  0  0  0  0  0  0  0
   -1.7230    2.3559    3.1245 H   0  0  0  0  0  0  0  0  0  0  0  0
   -1.8002    3.4872    1.7930 H   0  0  0  0  0  0  0  0  0  0  0  0
   -2.6480   -0.1823    2.3739 H   0  0  0  0  0  0  0  0  0  0  0  0
   -4.0240    3.6413    0.9013 H   0  0  0  0  0  0  0  0  0  0  0  0
   -4.8218   -1.1851    1.7709 H   0  0  0  0  0  0  0  0  0  0  0  0
   -6.2058    2.6337    0.3417 H   0  0  0  0  0  0  0  0  0  0  0  0
  1  2  1  0
  2  3  1  0
  1  4  1  0
  5  1  1  0
  4  6  2  0
  4  7  1  0
  8  5  1  0
  9  8  2  0
  8 10  1  0
 11  9  1  0
 10 12  2  0
 13 11  2  0
 12 13  1  0
 14 13  1  0
  3 15  1  0
 15 16  2  0
 17 15  1  0
 16 18  1  0
 19 17  2  0
 17 20  1  0
 18 21  1  0
 18 19  1  0
 20 22  2  0
 23 20  1  0
 21 24  2  0
 25 21  1  0
 22 26  1  0
 27 23  2  0
 23 28  1  0
 24 29  1  0
 30 25  2  0
 26 31  2  0
 31 27  1  0
 28 32  1  0
 29 33  2  0
 33 30  1  0
 32 34  1  0
 33 35  1  0
 34 36  2  0
 37 34  1  0
 36 38  1  0
 39 37  2  0
 38 40  2  0
 40 39  1  0
 40 41  1  0
  1 42  1  6
  2 43  1  0
  2 44  1  0
  3 45  1  0
  3 46  1  0
  5 47  1  0
  5 48  1  0
  9 49  1  0
 10 50  1  0
 11 51  1  0
 12 52  1  0
 14 53  1  0
 16 54  1  0
 22 55  1  0
 24 56  1  0
 25 57  1  0
 26 58  1  0
 27 59  1  0
 29 60  1  0
 30 61  1  0
 31 62  1  0
 32 63  1  0
 32 64  1  0
 36 65  1  0
 37 66  1  0
 38 67  1  0
 39 68  1  0
M  CHG  2   2   1   7  -1
M  END
>  <SMILES_raw>  (104) 
OC1=CC=C(C=C1)C[C@@H](C(O)=O)NCC2=CN(C3=CC=C(Br)C=C3)N=C2C4=CC=CC=C4OCC5=CC=C(Cl)C=C5

>  <Protonation_Method>  (104) 
MolScrub

>  <Target_pH>  (104) 
7.4

$$$$
N-((1-(4-bromophenyl)-3-(2-((4-chlorobenzyl)oxy)phenyl)-1H-pyrazol-4-yl)methyl)-L-phenylalanin
     RDKit          3D

 67 71  0  0  0  0  0  0  0  0999 V2000
    2.6795   -2.0625    0.2609 C   0  0  2  0  0  0  0  0  0  0  0  0
    1.6879   -0.9204    0.5657 N   0  0  0  0  0  0  0  0  0  0  0  0
    1.0586   -0.3175   -0.6272 C   0  0  0  0  0  0  0  0  0  0  0  0
    1.9441   -3.4317    0.3603 C   0  0  0  0  0  0  0  0  0  0  0  0
    3.8176   -2.0459    1.2918 C   0  0  0  0  0  0  0  0  0  0  0  0
    0.7642   -3.2655    0.8138 O   0  0  0  0  0  0  0  0  0  0  0  0
    2.5619   -4.4525   -0.0066 O   0  0  0  0  0  0  0  0  0  0  0  0
    5.1634   -1.8712    0.6231 C   0  0  0  0  0  0  0  0  0  0  0  0
    5.8249   -0.6361    0.6279 C   0  0  0  0  0  0  0  0  0  0  0  0
    5.7586   -2.9625   -0.0273 C   0  0  0  0  0  0  0  0  0  0  0  0
    7.0643   -0.5018   -0.0023 C   0  0  0  0  0  0  0  0  0  0  0  0
    7.0000   -2.8276   -0.6513 C   0  0  0  0  0  0  0  0  0  0  0  0
    7.6517   -1.5968   -0.6387 C   0  0  0  0  0  0  0  0  0  0  0  0
    0.2755    0.9057   -0.3064 C   0  0  0  0  0  0  0  0  0  0  0  0
    0.4592    2.1688   -0.8400 C   0  0  0  0  0  0  0  0  0  0  0  0
   -0.8036    1.0697    0.6129 C   0  0  0  0  0  0  0  0  0  0  0  0
   -0.4630    3.0069   -0.2535 N   0  0  0  0  0  0  0  0  0  0  0  0
   -1.1892    2.3510    0.6760 N   0  0  0  0  0  0  0  0  0  0  0  0
   -1.4321    0.0771    1.4879 C   0  0  0  0  0  0  0  0  0  0  0  0
   -0.6772    4.3920   -0.5005 C   0  0  0  0  0  0  0  0  0  0  0  0
   -1.5093    0.3576    2.8648 C   0  0  0  0  0  0  0  0  0  0  0  0
   -1.9543   -1.1347    0.9917 C   0  0  0  0  0  0  0  0  0  0  0  0
   -1.6245    5.0883    0.2675 C   0  0  0  0  0  0  0  0  0  0  0  0
    0.0342    5.0755   -1.4965 C   0  0  0  0  0  0  0  0  0  0  0  0
   -2.0634   -0.5651    3.7494 C   0  0  0  0  0  0  0  0  0  0  0  0
   -2.5075   -2.0511    1.8914 C   0  0  0  0  0  0  0  0  0  0  0  0
   -1.8388   -1.3460   -0.3561 O   0  0  0  0  0  0  0  0  0  0  0  0
   -1.8537    6.4497    0.0486 C   0  0  0  0  0  0  0  0  0  0  0  0
   -0.1995    6.4390   -1.7130 C   0  0  0  0  0  0  0  0  0  0  0  0
   -2.5545   -1.7708    3.2625 C   0  0  0  0  0  0  0  0  0  0  0  0
   -2.6363   -2.3603   -0.9798 C   0  0  0  0  0  0  0  0  0  0  0  0
   -1.1389    7.1191   -0.9400 C   0  0  0  0  0  0  0  0  0  0  0  0
   -4.0409   -1.8802   -1.2758 C   0  0  0  0  0  0  0  0  0  0  0  0
   -1.4457    8.9598   -1.2415 Br  0  0  0  0  0  0  0  0  0  0  0  0
   -4.2738   -0.5752   -1.7429 C   0  0  0  0  0  0  0  0  0  0  0  0
   -5.1277   -2.7593   -1.1512 C   0  0  0  0  0  0  0  0  0  0  0  0
   -5.5652   -0.1546   -2.0698 C   0  0  0  0  0  0  0  0  0  0  0  0
   -6.4209   -2.3399   -1.4789 C   0  0  0  0  0  0  0  0  0  0  0  0
   -6.6334   -1.0387   -1.9367 C   0  0  0  0  0  0  0  0  0  0  0  0
   -8.2215   -0.5302   -2.3591 Cl  0  0  0  0  0  0  0  0  0  0  0  0
    3.0337   -1.9080   -0.7656 H   0  0  0  0  0  0  0  0  0  0  0  0
    0.9263   -1.4726    1.0347 H   0  0  0  0  0  0  0  0  0  0  0  0
    2.0302   -0.2318    1.2358 H   0  0  0  0  0  0  0  0  0  0  0  0
    1.8779   -0.0453   -1.3041 H   0  0  0  0  0  0  0  0  0  0  0  0
    0.4575   -1.0839   -1.1226 H   0  0  0  0  0  0  0  0  0  0  0  0
    3.6883   -1.2369    2.0260 H   0  0  0  0  0  0  0  0  0  0  0  0
    3.8485   -2.9685    1.8889 H   0  0  0  0  0  0  0  0  0  0  0  0
    5.3954    0.2294    1.1292 H   0  0  0  0  0  0  0  0  0  0  0  0
    5.2587   -3.9339   -0.0411 H   0  0  0  0  0  0  0  0  0  0  0  0
    7.5809    0.4533    0.0135 H   0  0  0  0  0  0  0  0  0  0  0  0
    7.4528   -3.6858   -1.1439 H   0  0  0  0  0  0  0  0  0  0  0  0
    8.6222   -1.4908   -1.1228 H   0  0  0  0  0  0  0  0  0  0  0  0
    1.1635    2.5262   -1.5761 H   0  0  0  0  0  0  0  0  0  0  0  0
   -1.1223    1.2986    3.2565 H   0  0  0  0  0  0  0  0  0  0  0  0
   -2.1968    4.5810    1.0446 H   0  0  0  0  0  0  0  0  0  0  0  0
    0.7636    4.5820   -2.1301 H   0  0  0  0  0  0  0  0  0  0  0  0
   -2.0990   -0.3571    4.8184 H   0  0  0  0  0  0  0  0  0  0  0  0
   -2.8624   -3.0242    1.5833 H   0  0  0  0  0  0  0  0  0  0  0  0
   -2.5909    6.9710    0.6548 H   0  0  0  0  0  0  0  0  0  0  0  0
    0.3539    6.9635   -2.4890 H   0  0  0  0  0  0  0  0  0  0  0  0
   -2.9692   -2.5061    3.9489 H   0  0  0  0  0  0  0  0  0  0  0  0
   -2.6215   -3.3001   -0.4217 H   0  0  0  0  0  0  0  0  0  0  0  0
   -2.1598   -2.5923   -1.9375 H   0  0  0  0  0  0  0  0  0  0  0  0
   -3.4444    0.1212   -1.8580 H   0  0  0  0  0  0  0  0  0  0  0  0
   -4.9754   -3.7797   -0.8025 H   0  0  0  0  0  0  0  0  0  0  0  0
   -5.7284    0.8610   -2.4241 H   0  0  0  0  0  0  0  0  0  0  0  0
   -7.2539   -3.0319   -1.3833 H   0  0  0  0  0  0  0  0  0  0  0  0
  1  2  1  0
  2  3  1  0
  1  4  1  0
  1  5  1  0
  4  6  2  0
  4  7  1  0
  5  8  1  0
  8  9  2  0
 10  8  1  0
  9 11  1  0
 12 10  2  0
 11 13  2  0
 13 12  1  0
  3 14  1  0
 14 15  2  0
 16 14  1  0
 15 17  1  0
 18 16  2  0
 16 19  1  0
 17 20  1  0
 17 18  1  0
 19 21  2  0
 22 19  1  0
 20 23  2  0
 24 20  1  0
 21 25  1  0
 26 22  2  0
 22 27  1  0
 23 28  1  0
 29 24  2  0
 25 30  2  0
 30 26  1  0
 27 31  1  0
 28 32  2  0
 32 29  1  0
 31 33  1  0
 32 34  1  0
 33 35  2  0
 36 33  1  0
 35 37  1  0
 38 36  2  0
 37 39  2  0
 39 38  1  0
 39 40  1  0
  1 41  1  6
  2 42  1  0
  2 43  1  0
  3 44  1  0
  3 45  1  0
  5 46  1  0
  5 47  1  0
  9 48  1  0
 10 49  1  0
 11 50  1  0
 12 51  1  0
 13 52  1  0
 15 53  1  0
 21 54  1  0
 23 55  1  0
 24 56  1  0
 25 57  1  0
 26 58  1  0
 28 59  1  0
 29 60  1  0
 30 61  1  0
 31 62  1  0
 31 63  1  0
 35 64  1  0
 36 65  1  0
 37 66  1  0
 38 67  1  0
M  CHG  2   2   1   7  -1
M  END
>  <SMILES_raw>  (105) 
O=C(O)[C@H](CC1=CC=CC=C1)NCC2=CN(C3=CC=C(Br)C=C3)N=C2C4=CC=CC=C4OCC5=CC=C(Cl)C=C5

>  <Protonation_Method>  (105) 
MolScrub

>  <Target_pH>  (105) 
7.4

$$$$
N-((1-(4-bromophenyl)-3-(2-((4-chlorobenzyl)oxy)phenyl)-1H-pyrazol-4-yl)methyl)-L-tryptophan
     RDKit          3D

 71 76  0  0  0  0  0  0  0  0999 V2000
    2.9553   -0.5542   -3.1118 C   0  0  2  0  0  0  0  0  0  0  0  0
    1.9438   -0.9014   -2.0103 N   0  0  0  0  0  0  0  0  0  0  0  0
    0.9478    0.1216   -1.6628 C   0  0  0  0  0  0  0  0  0  0  0  0
    2.8661   -1.6309   -4.2287 C   0  0  0  0  0  0  0  0  0  0  0  0
    4.3727   -0.5586   -2.5430 C   0  0  0  0  0  0  0  0  0  0  0  0
    3.6581   -1.5413   -5.1909 O   0  0  0  0  0  0  0  0  0  0  0  0
    1.9401   -2.4640   -3.9464 O   0  0  0  0  0  0  0  0  0  0  0  0
    4.5333    0.3966   -1.3951 C   0  0  0  0  0  0  0  0  0  0  0  0
    4.6787    1.7673   -1.4934 C   0  0  0  0  0  0  0  0  0  0  0  0
    4.5562    0.0748    0.0010 C   0  0  0  0  0  0  0  0  0  0  0  0
    4.7811    2.2833   -0.2300 N   0  0  0  0  0  0  0  0  0  0  0  0
    4.6821    1.2760    0.6998 C   0  0  0  0  0  0  0  0  0  0  0  0
    4.4770   -1.1253    0.7388 C   0  0  0  0  0  0  0  0  0  0  0  0
    4.7200    1.3405    2.0978 C   0  0  0  0  0  0  0  0  0  0  0  0
    4.5143   -1.0777    2.1368 C   0  0  0  0  0  0  0  0  0  0  0  0
    4.6278    0.1397    2.8050 C   0  0  0  0  0  0  0  0  0  0  0  0
    0.1533   -0.3299   -0.4940 C   0  0  0  0  0  0  0  0  0  0  0  0
    0.5857   -0.4779    0.8089 C   0  0  0  0  0  0  0  0  0  0  0  0
   -1.2096   -0.7244   -0.4553 C   0  0  0  0  0  0  0  0  0  0  0  0
   -0.4580   -0.9989    1.5361 N   0  0  0  0  0  0  0  0  0  0  0  0
   -1.5488   -1.1772    0.7576 N   0  0  0  0  0  0  0  0  0  0  0  0
   -2.1731   -0.6906   -1.5512 C   0  0  0  0  0  0  0  0  0  0  0  0
   -0.4702   -1.3545    2.9139 C   0  0  0  0  0  0  0  0  0  0  0  0
   -2.7299   -1.8903   -2.0152 C   0  0  0  0  0  0  0  0  0  0  0  0
   -2.5398    0.5256   -2.1561 C   0  0  0  0  0  0  0  0  0  0  0  0
    0.6440   -1.1199    3.7338 C   0  0  0  0  0  0  0  0  0  0  0  0
   -1.6116   -1.9585    3.4607 C   0  0  0  0  0  0  0  0  0  0  0  0
   -3.6143   -1.8822   -3.0944 C   0  0  0  0  0  0  0  0  0  0  0  0
   -3.4074    0.5234   -3.2528 C   0  0  0  0  0  0  0  0  0  0  0  0
   -1.9793    1.6811   -1.6614 O   0  0  0  0  0  0  0  0  0  0  0  0
    0.6167   -1.4898    5.0821 C   0  0  0  0  0  0  0  0  0  0  0  0
   -1.6319   -2.3329    4.8070 C   0  0  0  0  0  0  0  0  0  0  0  0
   -3.9459   -0.6788   -3.7142 C   0  0  0  0  0  0  0  0  0  0  0  0
   -2.9046    2.7539   -1.4256 C   0  0  0  0  0  0  0  0  0  0  0  0
   -0.5184   -2.0986    5.6095 C   0  0  0  0  0  0  0  0  0  0  0  0
   -3.9452    2.4469   -0.3695 C   0  0  0  0  0  0  0  0  0  0  0  0
   -0.5479   -2.6033    7.4289 Br  0  0  0  0  0  0  0  0  0  0  0  0
   -3.5635    1.9532    0.8881 C   0  0  0  0  0  0  0  0  0  0  0  0
   -5.3059    2.6703   -0.6263 C   0  0  0  0  0  0  0  0  0  0  0  0
   -4.5215    1.6716    1.8635 C   0  0  0  0  0  0  0  0  0  0  0  0
   -6.2663    2.3906    0.3509 C   0  0  0  0  0  0  0  0  0  0  0  0
   -5.8687    1.8909    1.5890 C   0  0  0  0  0  0  0  0  0  0  0  0
   -7.0516    1.5419    2.7890 Cl  0  0  0  0  0  0  0  0  0  0  0  0
    2.6753    0.4233   -3.5199 H   0  0  0  0  0  0  0  0  0  0  0  0
    1.4592   -1.7200   -2.4614 H   0  0  0  0  0  0  0  0  0  0  0  0
    2.4089   -1.2945   -1.1917 H   0  0  0  0  0  0  0  0  0  0  0  0
    0.3442    0.2946   -2.5559 H   0  0  0  0  0  0  0  0  0  0  0  0
    1.4895    1.0410   -1.4150 H   0  0  0  0  0  0  0  0  0  0  0  0
    4.6474   -1.5718   -2.2213 H   0  0  0  0  0  0  0  0  0  0  0  0
    5.0948   -0.2891   -3.3229 H   0  0  0  0  0  0  0  0  0  0  0  0
    4.7357    2.4179   -2.3582 H   0  0  0  0  0  0  0  0  0  0  0  0
    4.9185    3.2608   -0.0087 H   0  0  0  0  0  0  0  0  0  0  0  0
    4.4099   -2.0879    0.2394 H   0  0  0  0  0  0  0  0  0  0  0  0
    4.8265    2.2869    2.6189 H   0  0  0  0  0  0  0  0  0  0  0  0
    4.4654   -2.0033    2.7058 H   0  0  0  0  0  0  0  0  0  0  0  0
    4.6678    0.1583    3.8946 H   0  0  0  0  0  0  0  0  0  0  0  0
    1.5471   -0.2746    1.2522 H   0  0  0  0  0  0  0  0  0  0  0  0
   -2.4715   -2.8348   -1.5389 H   0  0  0  0  0  0  0  0  0  0  0  0
    1.5420   -0.6402    3.3624 H   0  0  0  0  0  0  0  0  0  0  0  0
   -2.4937   -2.1525    2.8498 H   0  0  0  0  0  0  0  0  0  0  0  0
   -4.0413   -2.8157   -3.4517 H   0  0  0  0  0  0  0  0  0  0  0  0
   -3.6705    1.4399   -3.7695 H   0  0  0  0  0  0  0  0  0  0  0  0
    1.4837   -1.2974    5.7093 H   0  0  0  0  0  0  0  0  0  0  0  0
   -2.5212   -2.8066    5.2151 H   0  0  0  0  0  0  0  0  0  0  0  0
   -4.6273   -0.6795   -4.5635 H   0  0  0  0  0  0  0  0  0  0  0  0
   -2.3076    3.5997   -1.0567 H   0  0  0  0  0  0  0  0  0  0  0  0
   -3.3502    3.0960   -2.3685 H   0  0  0  0  0  0  0  0  0  0  0  0
   -2.5152    1.7667    1.1102 H   0  0  0  0  0  0  0  0  0  0  0  0
   -5.6292    3.0559   -1.5918 H   0  0  0  0  0  0  0  0  0  0  0  0
   -4.2102    1.2766    2.8276 H   0  0  0  0  0  0  0  0  0  0  0  0
   -7.3189    2.5620    0.1408 H   0  0  0  0  0  0  0  0  0  0  0  0
  1  2  1  0
  2  3  1  0
  1  4  1  0
  1  5  1  0
  4  6  2  0
  4  7  1  0
  5  8  1  0
  8  9  2  0
 10  8  1  0
  9 11  1  0
 12 10  2  0
 10 13  1  0
 11 12  1  0
 14 12  1  0
 13 15  2  0
 16 14  2  0
 15 16  1  0
  3 17  1  0
 17 18  2  0
 19 17  1  0
 18 20  1  0
 21 19  2  0
 19 22  1  0
 20 23  1  0
 20 21  1  0
 22 24  2  0
 25 22  1  0
 23 26  2  0
 27 23  1  0
 24 28  1  0
 29 25  2  0
 25 30  1  0
 26 31  1  0
 32 27  2  0
 28 33  2  0
 33 29  1  0
 30 34  1  0
 31 35  2  0
 35 32  1  0
 34 36  1  0
 35 37  1  0
 36 38  2  0
 39 36  1  0
 38 40  1  0
 41 39  2  0
 40 42  2  0
 42 41  1  0
 42 43  1  0
  1 44  1  6
  2 45  1  0
  2 46  1  0
  3 47  1  0
  3 48  1  0
  5 49  1  0
  5 50  1  0
  9 51  1  0
 11 52  1  0
 13 53  1  0
 14 54  1  0
 15 55  1  0
 16 56  1  0
 18 57  1  0
 24 58  1  0
 26 59  1  0
 27 60  1  0
 28 61  1  0
 29 62  1  0
 31 63  1  0
 32 64  1  0
 33 65  1  0
 34 66  1  0
 34 67  1  0
 38 68  1  0
 39 69  1  0
 40 70  1  0
 41 71  1  0
M  CHG  2   2   1   7  -1
M  END
>  <SMILES_raw>  (106) 
O=C(O)[C@H](CC1=CNC2=C1C=CC=C2)NCC3=CN(C4=CC=C(Br)C=C4)N=C3C5=CC=CC=C5OCC6=CC=C(Cl)C=C6

>  <Protonation_Method>  (106) 
MolScrub

>  <Target_pH>  (106) 
7.4

$$$$
N-((3-(2-((3-chlorobenzyl)oxy)phenyl)-1-(3-nitrophenyl)-1H-pyrazol-4-yl)methyl)-ʟ-leucin
     RDKit          3D

 68 71  0  0  0  0  0  0  0  0999 V2000
   -4.2383   -0.3742   -0.5315 C   0  0  2  0  0  0  0  0  0  0  0  0
   -2.9386    0.2564   -0.0176 N   0  0  0  0  0  0  0  0  0  0  0  0
   -1.7523    0.3361   -0.8708 C   0  0  0  0  0  0  0  0  0  0  0  0
   -5.3210   -0.1798    0.5791 C   0  0  0  0  0  0  0  0  0  0  0  0
   -3.9838   -1.8524   -0.8532 C   0  0  0  0  0  0  0  0  0  0  0  0
   -6.5114   -0.1002    0.2024 O   0  0  0  0  0  0  0  0  0  0  0  0
   -4.7661   -0.0053    1.7110 O   0  0  0  0  0  0  0  0  0  0  0  0
   -5.2194   -2.5856   -1.4278 C   0  0  0  0  0  0  0  0  0  0  0  0
   -4.8097   -3.5288   -2.5640 C   0  0  0  0  0  0  0  0  0  0  0  0
   -5.9487   -3.3971   -0.3533 C   0  0  0  0  0  0  0  0  0  0  0  0
   -0.7287    1.2098   -0.2444 C   0  0  0  0  0  0  0  0  0  0  0  0
   -0.5411    2.5710   -0.3999 C   0  0  0  0  0  0  0  0  0  0  0  0
    0.2658    0.8269    0.6905 C   0  0  0  0  0  0  0  0  0  0  0  0
    0.5149    2.9369    0.4094 N   0  0  0  0  0  0  0  0  0  0  0  0
    1.0208    1.8655    1.0607 N   0  0  0  0  0  0  0  0  0  0  0  0
    0.5000   -0.4998    1.2349 C   0  0  0  0  0  0  0  0  0  0  0  0
    1.0650    4.2340    0.6181 C   0  0  0  0  0  0  0  0  0  0  0  0
   -0.1067   -0.8661    2.4431 C   0  0  0  0  0  0  0  0  0  0  0  0
    1.3023   -1.4293    0.5571 C   0  0  0  0  0  0  0  0  0  0  0  0
    0.5240    5.3659   -0.0077 C   0  0  0  0  0  0  0  0  0  0  0  0
    2.1623    4.3810    1.4850 C   0  0  0  0  0  0  0  0  0  0  0  0
    0.0730   -2.1543    2.9526 C   0  0  0  0  0  0  0  0  0  0  0  0
    1.4709   -2.7199    1.0583 C   0  0  0  0  0  0  0  0  0  0  0  0
    1.8891   -1.1203   -0.6438 O   0  0  0  0  0  0  0  0  0  0  0  0
    1.0639    6.6330    0.2379 C   0  0  0  0  0  0  0  0  0  0  0  0
    2.6967    5.6541    1.7220 C   0  0  0  0  0  0  0  0  0  0  0  0
    0.8619   -3.0780    2.2617 C   0  0  0  0  0  0  0  0  0  0  0  0
    3.1544   -0.4656   -0.4357 C   0  0  0  0  0  0  0  0  0  0  0  0
    2.1477    6.7828    1.1045 C   0  0  0  0  0  0  0  0  0  0  0  0
    3.8406    5.8077    2.6321 N   0  0  0  0  0  0  0  0  0  0  0  0
    4.2689   -1.3961   -0.8528 C   0  0  0  0  0  0  0  0  0  0  0  0
    4.2251    6.9591    2.8835 O   0  0  0  0  0  0  0  0  0  0  0  0
    4.3575    4.7779    3.0892 O   0  0  0  0  0  0  0  0  0  0  0  0
    5.1530   -1.9223    0.0999 C   0  0  0  0  0  0  0  0  0  0  0  0
    4.4200   -1.7632   -2.2001 C   0  0  0  0  0  0  0  0  0  0  0  0
    6.1707   -2.7953   -0.2865 C   0  0  0  0  0  0  0  0  0  0  0  0
    5.4383   -2.6374   -2.5794 C   0  0  0  0  0  0  0  0  0  0  0  0
    6.3152   -3.1526   -1.6283 C   0  0  0  0  0  0  0  0  0  0  0  0
    5.6078   -3.0865   -4.2324 Cl  0  0  0  0  0  0  0  0  0  0  0  0
   -4.5158    0.1911   -1.4286 H   0  0  0  0  0  0  0  0  0  0  0  0
   -3.2352    1.1881    0.3049 H   0  0  0  0  0  0  0  0  0  0  0  0
   -2.7903   -0.1984    0.9001 H   0  0  0  0  0  0  0  0  0  0  0  0
   -1.3709   -0.6786   -1.0240 H   0  0  0  0  0  0  0  0  0  0  0  0
   -2.0679    0.7442   -1.8371 H   0  0  0  0  0  0  0  0  0  0  0  0
   -3.1764   -1.9005   -1.5933 H   0  0  0  0  0  0  0  0  0  0  0  0
   -3.6156   -2.3781    0.0384 H   0  0  0  0  0  0  0  0  0  0  0  0
   -5.9180   -1.8543   -1.8515 H   0  0  0  0  0  0  0  0  0  0  0  0
   -5.6852   -4.0374   -2.9851 H   0  0  0  0  0  0  0  0  0  0  0  0
   -4.1044   -4.2906   -2.2192 H   0  0  0  0  0  0  0  0  0  0  0  0
   -4.3341   -2.9697   -3.3773 H   0  0  0  0  0  0  0  0  0  0  0  0
   -6.2435   -2.7805    0.4990 H   0  0  0  0  0  0  0  0  0  0  0  0
   -6.8618   -3.8453   -0.7645 H   0  0  0  0  0  0  0  0  0  0  0  0
   -5.3193   -4.2101    0.0260 H   0  0  0  0  0  0  0  0  0  0  0  0
   -1.0701    3.2908   -1.0059 H   0  0  0  0  0  0  0  0  0  0  0  0
   -0.7050   -0.1508    3.0046 H   0  0  0  0  0  0  0  0  0  0  0  0
   -0.3249    5.3040   -0.6820 H   0  0  0  0  0  0  0  0  0  0  0  0
    2.5914    3.5094    1.9793 H   0  0  0  0  0  0  0  0  0  0  0  0
   -0.3830   -2.4261    3.9006 H   0  0  0  0  0  0  0  0  0  0  0  0
    2.0818   -3.4399    0.5194 H   0  0  0  0  0  0  0  0  0  0  0  0
    0.6305    7.5071   -0.2428 H   0  0  0  0  0  0  0  0  0  0  0  0
    1.0064   -4.0779    2.6655 H   0  0  0  0  0  0  0  0  0  0  0  0
    3.1750    0.4237   -1.0759 H   0  0  0  0  0  0  0  0  0  0  0  0
    3.3000   -0.1167    0.5972 H   0  0  0  0  0  0  0  0  0  0  0  0
    2.5488    7.7770    1.2859 H   0  0  0  0  0  0  0  0  0  0  0  0
    5.0504   -1.6590    1.1514 H   0  0  0  0  0  0  0  0  0  0  0  0
    3.7337   -1.3736   -2.9477 H   0  0  0  0  0  0  0  0  0  0  0  0
    6.8529   -3.2006    0.4591 H   0  0  0  0  0  0  0  0  0  0  0  0
    7.1064   -3.8352   -1.9222 H   0  0  0  0  0  0  0  0  0  0  0  0
  1  2  1  0
  2  3  1  0
  1  4  1  0
  5  1  1  0
  4  6  2  0
  4  7  1  0
  8  5  1  0
  9  8  1  0
  8 10  1  0
  3 11  1  0
 11 12  2  0
 13 11  1  0
 12 14  1  0
 15 13  2  0
 13 16  1  0
 14 17  1  0
 14 15  1  0
 16 18  2  0
 19 16  1  0
 17 20  2  0
 21 17  1  0
 18 22  1  0
 23 19  2  0
 19 24  1  0
 20 25  1  0
 26 21  2  0
 22 27  2  0
 27 23  1  0
 24 28  1  0
 25 29  2  0
 29 26  1  0
 26 30  1  0
 28 31  1  0
 30 32  1  0
 30 33  2  0
 31 34  2  0
 35 31  1  0
 34 36  1  0
 37 35  2  0
 36 38  2  0
 38 37  1  0
 37 39  1  0
  1 40  1  6
  2 41  1  0
  2 42  1  0
  3 43  1  0
  3 44  1  0
  5 45  1  0
  5 46  1  0
  8 47  1  0
  9 48  1  0
  9 49  1  0
  9 50  1  0
 10 51  1  0
 10 52  1  0
 10 53  1  0
 12 54  1  0
 18 55  1  0
 20 56  1  0
 21 57  1  0
 22 58  1  0
 23 59  1  0
 25 60  1  0
 27 61  1  0
 28 62  1  0
 28 63  1  0
 29 64  1  0
 34 65  1  0
 35 66  1  0
 36 67  1  0
 38 68  1  0
M  CHG  4   2   1   7  -1  30   1  32  -1
M  END
>  <SMILES_raw>  (107) 
CC(C)C[C@@H](C(O)=O)NCC1=CN(C2=CC=CC([N+]([O-])=O)=C2)N=C1C3=CC=CC=C3OCC4=CC=CC(Cl)=C4

>  <Protonation_Method>  (107) 
MolScrub

>  <Target_pH>  (107) 
7.4

$$$$
N-((3-(2-((3-chlorobenzyl)oxy)phenyl)-1-(3-nitrophenyl)-1H-pyrazol-4-yl)methyl)-ʟ-alanin
     RDKit          3D

 59 62  0  0  0  0  0  0  0  0999 V2000
   -3.4643   -3.6803    0.5148 C   0  0  2  0  0  0  0  0  0  0  0  0
   -2.8845   -2.3188    0.1530 N   0  0  0  0  0  0  0  0  0  0  0  0
   -1.5452   -1.9385    0.6084 C   0  0  0  0  0  0  0  0  0  0  0  0
   -5.0137   -3.6105    0.3662 C   0  0  0  0  0  0  0  0  0  0  0  0
   -3.2072   -4.0207    1.9739 C   0  0  0  0  0  0  0  0  0  0  0  0
   -5.6232   -4.6893    0.2287 O   0  0  0  0  0  0  0  0  0  0  0  0
   -5.3869   -2.3913    0.3622 O   0  0  0  0  0  0  0  0  0  0  0  0
   -1.0932   -0.6865   -0.0492 C   0  0  0  0  0  0  0  0  0  0  0  0
   -1.6580    0.5701    0.0582 C   0  0  0  0  0  0  0  0  0  0  0  0
    0.0075   -0.5037   -0.9295 C   0  0  0  0  0  0  0  0  0  0  0  0
   -0.9093    1.4240   -0.7206 N   0  0  0  0  0  0  0  0  0  0  0  0
    0.0510    0.7508   -1.3875 N   0  0  0  0  0  0  0  0  0  0  0  0
    0.9918   -1.4833   -1.3787 C   0  0  0  0  0  0  0  0  0  0  0  0
   -1.0364    2.8335   -0.8631 C   0  0  0  0  0  0  0  0  0  0  0  0
    1.1955   -1.6614   -2.7555 C   0  0  0  0  0  0  0  0  0  0  0  0
    1.7742   -2.2234   -0.4713 C   0  0  0  0  0  0  0  0  0  0  0  0
   -2.0225    3.5483   -0.1688 C   0  0  0  0  0  0  0  0  0  0  0  0
   -0.1363    3.5230   -1.6923 C   0  0  0  0  0  0  0  0  0  0  0  0
    2.1174   -2.6013   -3.2199 C   0  0  0  0  0  0  0  0  0  0  0  0
    2.6862   -3.1769   -0.9390 C   0  0  0  0  0  0  0  0  0  0  0  0
    1.5876   -2.0519    0.8820 O   0  0  0  0  0  0  0  0  0  0  0  0
   -2.0999    4.9399   -0.2800 C   0  0  0  0  0  0  0  0  0  0  0  0
   -0.2230    4.9171   -1.7948 C   0  0  0  0  0  0  0  0  0  0  0  0
    2.8610   -3.3580   -2.3128 C   0  0  0  0  0  0  0  0  0  0  0  0
    2.7523   -1.5209    1.5363 C   0  0  0  0  0  0  0  0  0  0  0  0
   -1.1985    5.6299   -1.0870 C   0  0  0  0  0  0  0  0  0  0  0  0
    0.7237    5.6399   -2.6484 N   0  0  0  0  0  0  0  0  0  0  0  0
    2.8804   -0.0325    1.3306 C   0  0  0  0  0  0  0  0  0  0  0  0
    1.3947    4.9774   -3.4526 O   0  0  0  0  0  0  0  0  0  0  0  0
    0.7925    6.8700   -2.5185 O   0  0  0  0  0  0  0  0  0  0  0  0
    3.9338    0.4881    0.5725 C   0  0  0  0  0  0  0  0  0  0  0  0
    1.9435    0.8486    1.8805 C   0  0  0  0  0  0  0  0  0  0  0  0
    4.0589    1.8689    0.3773 C   0  0  0  0  0  0  0  0  0  0  0  0
    2.0731    2.2244    1.6769 C   0  0  0  0  0  0  0  0  0  0  0  0
    3.1256    2.7375    0.9332 C   0  0  0  0  0  0  0  0  0  0  0  0
    0.9145    3.2997    2.3499 Cl  0  0  0  0  0  0  0  0  0  0  0  0
   -3.0223   -4.4065   -0.1566 H   0  0  0  0  0  0  0  0  0  0  0  0
   -3.6414   -1.6833    0.4826 H   0  0  0  0  0  0  0  0  0  0  0  0
   -2.9829   -2.2119   -0.8629 H   0  0  0  0  0  0  0  0  0  0  0  0
   -0.8882   -2.7849    0.3912 H   0  0  0  0  0  0  0  0  0  0  0  0
   -1.5934   -1.7903    1.6919 H   0  0  0  0  0  0  0  0  0  0  0  0
   -3.7010   -4.9602    2.2500 H   0  0  0  0  0  0  0  0  0  0  0  0
   -3.5845   -3.2365    2.6452 H   0  0  0  0  0  0  0  0  0  0  0  0
   -2.1329   -4.1540    2.1674 H   0  0  0  0  0  0  0  0  0  0  0  0
   -2.5060    0.9120    0.6332 H   0  0  0  0  0  0  0  0  0  0  0  0
    0.6348   -1.0601   -3.4736 H   0  0  0  0  0  0  0  0  0  0  0  0
   -2.7464    3.0558    0.4711 H   0  0  0  0  0  0  0  0  0  0  0  0
    0.6296    2.9779   -2.2434 H   0  0  0  0  0  0  0  0  0  0  0  0
    2.2597   -2.7411   -4.2929 H   0  0  0  0  0  0  0  0  0  0  0  0
    3.2765   -3.7777   -0.2435 H   0  0  0  0  0  0  0  0  0  0  0  0
   -2.8599    5.4839    0.2732 H   0  0  0  0  0  0  0  0  0  0  0  0
    3.5782   -4.0883   -2.6818 H   0  0  0  0  0  0  0  0  0  0  0  0
    3.6679   -2.0574    1.2622 H   0  0  0  0  0  0  0  0  0  0  0  0
    2.6216   -1.7007    2.6057 H   0  0  0  0  0  0  0  0  0  0  0  0
   -1.2679    6.7138   -1.1554 H   0  0  0  0  0  0  0  0  0  0  0  0
    4.6679   -0.1780    0.1224 H   0  0  0  0  0  0  0  0  0  0  0  0
    1.1135    0.4680    2.4602 H   0  0  0  0  0  0  0  0  0  0  0  0
    4.8904    2.2640   -0.2079 H   0  0  0  0  0  0  0  0  0  0  0  0
    3.2234    3.8135    0.7899 H   0  0  0  0  0  0  0  0  0  0  0  0
  1  2  1  0
  2  3  1  0
  1  4  1  0
  5  1  1  0
  4  6  2  0
  4  7  1  0
  3  8  1  0
  8  9  2  0
 10  8  1  0
  9 11  1  0
 12 10  2  0
 10 13  1  0
 11 14  1  0
 11 12  1  0
 13 15  2  0
 16 13  1  0
 14 17  2  0
 18 14  1  0
 15 19  1  0
 20 16  2  0
 16 21  1  0
 17 22  1  0
 23 18  2  0
 19 24  2  0
 24 20  1  0
 21 25  1  0
 22 26  2  0
 26 23  1  0
 23 27  1  0
 25 28  1  0
 27 29  1  0
 27 30  2  0
 28 31  2  0
 32 28  1  0
 31 33  1  0
 34 32  2  0
 33 35  2  0
 35 34  1  0
 34 36  1  0
  1 37  1  6
  2 38  1  0
  2 39  1  0
  3 40  1  0
  3 41  1  0
  5 42  1  0
  5 43  1  0
  5 44  1  0
  9 45  1  0
 15 46  1  0
 17 47  1  0
 18 48  1  0
 19 49  1  0
 20 50  1  0
 22 51  1  0
 24 52  1  0
 25 53  1  0
 25 54  1  0
 26 55  1  0
 31 56  1  0
 32 57  1  0
 33 58  1  0
 35 59  1  0
M  CHG  4   2   1   7  -1  27   1  29  -1
M  END
>  <SMILES_raw>  (108) 
C[C@@H](C(O)=O)NCC1=CN(C2=CC=CC([N+]([O-])=O)=C2)N=C1C3=CC=CC=C3OCC4=CC=CC(Cl)=C4

>  <Protonation_Method>  (108) 
MolScrub

>  <Target_pH>  (108) 
7.4

$$$$
N-((3-(2-((2-chlorobenzyl)oxy)phenyl)-1-(3-nitrophenyl)-1H-pyrazol4-yl)methyl)-ʟ-phenylalanin
     RDKit          3D

 69 73  0  0  0  0  0  0  0  0999 V2000
    2.9056   -1.6044   -0.5912 C   0  0  2  0  0  0  0  0  0  0  0  0
    1.8096   -0.5227   -0.4353 N   0  0  0  0  0  0  0  0  0  0  0  0
    1.2495   -0.3168    0.9222 C   0  0  0  0  0  0  0  0  0  0  0  0
    2.2194   -3.0048   -0.5812 C   0  0  0  0  0  0  0  0  0  0  0  0
    4.0646   -1.3759    0.3836 C   0  0  0  0  0  0  0  0  0  0  0  0
    2.8138   -3.9562   -0.0335 O   0  0  0  0  0  0  0  0  0  0  0  0
    1.0539   -2.9112   -1.0869 O   0  0  0  0  0  0  0  0  0  0  0  0
    5.4202   -1.5716   -0.2600 C   0  0  0  0  0  0  0  0  0  0  0  0
    6.2166   -0.4667   -0.5985 C   0  0  0  0  0  0  0  0  0  0  0  0
    5.9000   -2.8609   -0.5313 C   0  0  0  0  0  0  0  0  0  0  0  0
    7.4609   -0.6509   -1.2047 C   0  0  0  0  0  0  0  0  0  0  0  0
    7.1429   -3.0407   -1.1419 C   0  0  0  0  0  0  0  0  0  0  0  0
    7.9205   -1.9363   -1.4828 C   0  0  0  0  0  0  0  0  0  0  0  0
    0.2167    0.7568    0.9411 C   0  0  0  0  0  0  0  0  0  0  0  0
    0.3317    2.0659    0.5045 C   0  0  0  0  0  0  0  0  0  0  0  0
   -1.1078    0.6761    1.4570 C   0  0  0  0  0  0  0  0  0  0  0  0
   -0.8665    2.6941    0.7687 N   0  0  0  0  0  0  0  0  0  0  0  0
   -1.7222    1.8612    1.3922 N   0  0  0  0  0  0  0  0  0  0  0  0
   -1.7886   -0.4878    2.0206 C   0  0  0  0  0  0  0  0  0  0  0  0
   -1.2495    4.0344    0.4767 C   0  0  0  0  0  0  0  0  0  0  0  0
   -2.3075   -0.4170    3.3206 C   0  0  0  0  0  0  0  0  0  0  0  0
   -1.9618   -1.6611    1.2606 C   0  0  0  0  0  0  0  0  0  0  0  0
   -2.5337    4.4793    0.8418 C   0  0  0  0  0  0  0  0  0  0  0  0
   -0.3753    4.9178   -0.1693 C   0  0  0  0  0  0  0  0  0  0  0  0
   -2.9521   -1.5189    3.8825 C   0  0  0  0  0  0  0  0  0  0  0  0
   -2.5853   -2.7688    1.8420 C   0  0  0  0  0  0  0  0  0  0  0  0
   -1.5051   -1.6165   -0.0346 O   0  0  0  0  0  0  0  0  0  0  0  0
   -2.9412    5.7886    0.5698 C   0  0  0  0  0  0  0  0  0  0  0  0
   -0.7931    6.2337   -0.4344 C   0  0  0  0  0  0  0  0  0  0  0  0
   -3.0816   -2.6943    3.1458 C   0  0  0  0  0  0  0  0  0  0  0  0
   -2.0804   -2.5245   -0.9909 C   0  0  0  0  0  0  0  0  0  0  0  0
   -2.0730    6.6709   -0.0703 C   0  0  0  0  0  0  0  0  0  0  0  0
    0.1263    7.1633   -1.1073 N   0  0  0  0  0  0  0  0  0  0  0  0
   -3.5292   -2.1956   -1.3120 C   0  0  0  0  0  0  0  0  0  0  0  0
    1.2451    6.7321   -1.4230 O   0  0  0  0  0  0  0  0  0  0  0  0
   -0.2679    8.3187   -1.3189 O   0  0  0  0  0  0  0  0  0  0  0  0
   -3.9310   -0.8462   -1.3787 C   0  0  0  0  0  0  0  0  0  0  0  0
   -4.4823   -3.1839   -1.6052 C   0  0  0  0  0  0  0  0  0  0  0  0
   -5.2450   -0.4975   -1.6982 C   0  0  0  0  0  0  0  0  0  0  0  0
   -5.7981   -2.8292   -1.9270 C   0  0  0  0  0  0  0  0  0  0  0  0
   -4.0950   -4.8672   -1.6032 Cl  0  0  0  0  0  0  0  0  0  0  0  0
   -6.1812   -1.4891   -1.9694 C   0  0  0  0  0  0  0  0  0  0  0  0
    3.2503   -1.4518   -1.6224 H   0  0  0  0  0  0  0  0  0  0  0  0
    1.0315   -1.0011   -0.9510 H   0  0  0  0  0  0  0  0  0  0  0  0
    2.0338    0.3336   -0.9388 H   0  0  0  0  0  0  0  0  0  0  0  0
    2.0698   -0.0026    1.5776 H   0  0  0  0  0  0  0  0  0  0  0  0
    0.8778   -1.2803    1.2852 H   0  0  0  0  0  0  0  0  0  0  0  0
    4.0449   -0.3529    0.7770 H   0  0  0  0  0  0  0  0  0  0  0  0
    3.9888   -2.0343    1.2594 H   0  0  0  0  0  0  0  0  0  0  0  0
    5.8836    0.5473   -0.3873 H   0  0  0  0  0  0  0  0  0  0  0  0
    5.3110   -3.7394   -0.2677 H   0  0  0  0  0  0  0  0  0  0  0  0
    8.0750    0.2084   -1.4590 H   0  0  0  0  0  0  0  0  0  0  0  0
    7.5013   -4.0463   -1.3473 H   0  0  0  0  0  0  0  0  0  0  0  0
    8.8865   -2.0783   -1.9599 H   0  0  0  0  0  0  0  0  0  0  0  0
    1.1561    2.5854    0.0449 H   0  0  0  0  0  0  0  0  0  0  0  0
   -2.2189    0.5006    3.8968 H   0  0  0  0  0  0  0  0  0  0  0  0
   -3.2400    3.8119    1.3407 H   0  0  0  0  0  0  0  0  0  0  0  0
    0.6224    4.6107   -0.4669 H   0  0  0  0  0  0  0  0  0  0  0  0
   -3.3680   -1.4538    4.8830 H   0  0  0  0  0  0  0  0  0  0  0  0
   -2.7121   -3.7050    1.3057 H   0  0  0  0  0  0  0  0  0  0  0  0
   -3.9389    6.1159    0.8575 H   0  0  0  0  0  0  0  0  0  0  0  0
   -3.5783   -3.5589    3.5812 H   0  0  0  0  0  0  0  0  0  0  0  0
   -1.9103   -3.5580   -0.6730 H   0  0  0  0  0  0  0  0  0  0  0  0
   -1.5148   -2.3941   -1.9228 H   0  0  0  0  0  0  0  0  0  0  0  0
   -2.4064    7.6868   -0.2771 H   0  0  0  0  0  0  0  0  0  0  0  0
   -3.2162   -0.0518   -1.1704 H   0  0  0  0  0  0  0  0  0  0  0  0
   -5.5346    0.5501   -1.7316 H   0  0  0  0  0  0  0  0  0  0  0  0
   -6.5347   -3.5986   -2.1505 H   0  0  0  0  0  0  0  0  0  0  0  0
   -7.2030   -1.2198   -2.2231 H   0  0  0  0  0  0  0  0  0  0  0  0
  1  2  1  0
  2  3  1  0
  1  4  1  0
  1  5  1  0
  4  6  2  0
  4  7  1  0
  5  8  1  0
  8  9  2  0
 10  8  1  0
  9 11  1  0
 12 10  2  0
 11 13  2  0
 13 12  1  0
  3 14  1  0
 14 15  2  0
 16 14  1  0
 15 17  1  0
 18 16  2  0
 16 19  1  0
 17 20  1  0
 17 18  1  0
 19 21  2  0
 22 19  1  0
 20 23  2  0
 24 20  1  0
 21 25  1  0
 26 22  2  0
 22 27  1  0
 23 28  1  0
 29 24  2  0
 25 30  2  0
 30 26  1  0
 27 31  1  0
 28 32  2  0
 32 29  1  0
 29 33  1  0
 31 34  1  0
 33 35  1  0
 33 36  2  0
 34 37  2  0
 38 34  1  0
 37 39  1  0
 40 38  2  0
 38 41  1  0
 39 42  2  0
 42 40  1  0
  1 43  1  6
  2 44  1  0
  2 45  1  0
  3 46  1  0
  3 47  1  0
  5 48  1  0
  5 49  1  0
  9 50  1  0
 10 51  1  0
 11 52  1  0
 12 53  1  0
 13 54  1  0
 15 55  1  0
 21 56  1  0
 23 57  1  0
 24 58  1  0
 25 59  1  0
 26 60  1  0
 28 61  1  0
 30 62  1  0
 31 63  1  0
 31 64  1  0
 32 65  1  0
 37 66  1  0
 39 67  1  0
 40 68  1  0
 42 69  1  0
M  CHG  4   2   1   7  -1  33   1  35  -1
M  END
>  <SMILES_raw>  (109) 
O=C(O)[C@H](CC1=CC=CC=C1)NCC2=CN(C3=CC=CC([N+]([O-])=O)=C3)N=C2C4=CC=CC=C4OCC5=CC=CC=C5Cl

>  <Protonation_Method>  (109) 
MolScrub

>  <Target_pH>  (109) 
7.4

$$$$
N-((1-(4-bromophenyl)-3-(2-((3-chlorobenzyl)oxy)phenyl)-1H-pyrazol-4-yl)methyl)-ʟ-isoleucin
     RDKit          3D

 66 69  0  0  0  0  0  0  0  0999 V2000
   -3.1552   -1.1735   -1.1605 C   0  0  2  0  0  0  0  0  0  0  0  0
   -2.2688   -0.1417   -0.4604 N   0  0  0  0  0  0  0  0  0  0  0  0
   -1.8406    0.9656   -1.3455 C   0  0  0  0  0  0  0  0  0  0  0  0
   -4.5679   -0.5704   -1.4441 C   0  0  0  0  0  0  0  0  0  0  0  0
   -3.2013   -2.4428   -0.2748 C   0  0  2  0  0  0  0  0  0  0  0  0
   -5.1613   -1.0060   -2.4579 O   0  0  0  0  0  0  0  0  0  0  0  0
   -4.8402    0.3632   -0.6248 O   0  0  0  0  0  0  0  0  0  0  0  0
   -3.8113   -3.6275   -1.0458 C   0  0  0  0  0  0  0  0  0  0  0  0
   -3.9178   -2.2173    1.0619 C   0  0  0  0  0  0  0  0  0  0  0  0
   -3.6356   -4.9633   -0.3332 C   0  0  0  0  0  0  0  0  0  0  0  0
   -0.6864    1.6851   -0.7554 C   0  0  0  0  0  0  0  0  0  0  0  0
   -0.6959    2.7799    0.0865 C   0  0  0  0  0  0  0  0  0  0  0  0
    0.6920    1.3965   -0.9438 C   0  0  0  0  0  0  0  0  0  0  0  0
    0.6165    3.1333    0.3155 N   0  0  0  0  0  0  0  0  0  0  0  0
    1.4644    2.3104   -0.3474 N   0  0  0  0  0  0  0  0  0  0  0  0
    1.2789    0.2952   -1.7010 C   0  0  0  0  0  0  0  0  0  0  0  0
    1.1178    4.1957    1.1169 C   0  0  0  0  0  0  0  0  0  0  0  0
    2.1004    0.5906   -2.7965 C   0  0  0  0  0  0  0  0  0  0  0  0
    1.0554   -1.0500   -1.3518 C   0  0  0  0  0  0  0  0  0  0  0  0
    0.2708    4.9482    1.9395 C   0  0  0  0  0  0  0  0  0  0  0  0
    2.4894    4.4892    1.0864 C   0  0  0  0  0  0  0  0  0  0  0  0
    2.6433   -0.4375   -3.5677 C   0  0  0  0  0  0  0  0  0  0  0  0
    1.5637   -2.0753   -2.1573 C   0  0  0  0  0  0  0  0  0  0  0  0
    0.2865   -1.3299   -0.2454 O   0  0  0  0  0  0  0  0  0  0  0  0
    0.7918    5.9881    2.7211 C   0  0  0  0  0  0  0  0  0  0  0  0
    3.0053    5.5313    1.8612 C   0  0  0  0  0  0  0  0  0  0  0  0
    2.3643   -1.7669   -3.2561 C   0  0  0  0  0  0  0  0  0  0  0  0
    0.9270   -2.2089    0.7045 C   0  0  0  0  0  0  0  0  0  0  0  0
    2.1566    6.2725    2.6785 C   0  0  0  0  0  0  0  0  0  0  0  0
    2.1764   -1.6230    1.3226 C   0  0  0  0  0  0  0  0  0  0  0  0
    2.8593    7.6689    3.7385 Br  0  0  0  0  0  0  0  0  0  0  0  0
    3.4074   -2.2855    1.2031 C   0  0  0  0  0  0  0  0  0  0  0  0
    2.1172   -0.4146    2.0288 C   0  0  0  0  0  0  0  0  0  0  0  0
    4.5613   -1.7370    1.7661 C   0  0  0  0  0  0  0  0  0  0  0  0
    3.2748    0.1275    2.5911 C   0  0  0  0  0  0  0  0  0  0  0  0
    4.4958   -0.5271    2.4607 C   0  0  0  0  0  0  0  0  0  0  0  0
    3.1909    1.6152    3.4528 Cl  0  0  0  0  0  0  0  0  0  0  0  0
   -2.6480   -1.4074   -2.1042 H   0  0  0  0  0  0  0  0  0  0  0  0
   -1.4676   -0.5700    0.0024 H   0  0  0  0  0  0  0  0  0  0  0  0
   -2.9125    0.2845    0.2304 H   0  0  0  0  0  0  0  0  0  0  0  0
   -1.5771    0.5427   -2.3185 H   0  0  0  0  0  0  0  0  0  0  0  0
   -2.6957    1.6367   -1.4864 H   0  0  0  0  0  0  0  0  0  0  0  0
   -2.1654   -2.7130   -0.0402 H   0  0  0  0  0  0  0  0  0  0  0  0
   -4.8785   -3.4656   -1.2316 H   0  0  0  0  0  0  0  0  0  0  0  0
   -3.3207   -3.7035   -2.0249 H   0  0  0  0  0  0  0  0  0  0  0  0
   -3.5009   -1.3636    1.6032 H   0  0  0  0  0  0  0  0  0  0  0  0
   -3.8122   -3.0862    1.7192 H   0  0  0  0  0  0  0  0  0  0  0  0
   -4.9890   -2.0336    0.9182 H   0  0  0  0  0  0  0  0  0  0  0  0
   -2.5890   -5.1281   -0.0645 H   0  0  0  0  0  0  0  0  0  0  0  0
   -4.2382   -5.0113    0.5799 H   0  0  0  0  0  0  0  0  0  0  0  0
   -3.9526   -5.7814   -0.9856 H   0  0  0  0  0  0  0  0  0  0  0  0
   -1.5191    3.3456    0.4983 H   0  0  0  0  0  0  0  0  0  0  0  0
    2.3153    1.6246   -3.0602 H   0  0  0  0  0  0  0  0  0  0  0  0
   -0.7918    4.7444    2.0232 H   0  0  0  0  0  0  0  0  0  0  0  0
    3.1717    3.9171    0.4603 H   0  0  0  0  0  0  0  0  0  0  0  0
    3.2685   -0.1961   -4.4262 H   0  0  0  0  0  0  0  0  0  0  0  0
    1.3340   -3.1180   -1.9533 H   0  0  0  0  0  0  0  0  0  0  0  0
    0.1307    6.5536    3.3714 H   0  0  0  0  0  0  0  0  0  0  0  0
    4.0685    5.7468    1.8158 H   0  0  0  0  0  0  0  0  0  0  0  0
    2.7692   -2.5634   -3.8776 H   0  0  0  0  0  0  0  0  0  0  0  0
    1.1027   -3.1991    0.2650 H   0  0  0  0  0  0  0  0  0  0  0  0
    0.2010   -2.3653    1.5159 H   0  0  0  0  0  0  0  0  0  0  0  0
    3.4794   -3.2265    0.6613 H   0  0  0  0  0  0  0  0  0  0  0  0
    1.1751    0.1201    2.1241 H   0  0  0  0  0  0  0  0  0  0  0  0
    5.5175   -2.2412    1.6567 H   0  0  0  0  0  0  0  0  0  0  0  0
    5.3996   -0.1016    2.8905 H   0  0  0  0  0  0  0  0  0  0  0  0
  1  2  1  0
  2  3  1  0
  1  4  1  0
  5  1  1  0
  4  6  2  0
  4  7  1  0
  8  5  1  0
  5  9  1  0
 10  8  1  0
  3 11  1  0
 11 12  2  0
 13 11  1  0
 12 14  1  0
 15 13  2  0
 13 16  1  0
 14 17  1  0
 14 15  1  0
 16 18  2  0
 19 16  1  0
 17 20  2  0
 21 17  1  0
 18 22  1  0
 23 19  2  0
 19 24  1  0
 20 25  1  0
 26 21  2  0
 22 27  2  0
 27 23  1  0
 24 28  1  0
 25 29  2  0
 29 26  1  0
 28 30  1  0
 29 31  1  0
 30 32  2  0
 33 30  1  0
 32 34  1  0
 35 33  2  0
 34 36  2  0
 36 35  1  0
 35 37  1  0
  1 38  1  6
  2 39  1  0
  2 40  1  0
  3 41  1  0
  3 42  1  0
  5 43  1  1
  8 44  1  0
  8 45  1  0
  9 46  1  0
  9 47  1  0
  9 48  1  0
 10 49  1  0
 10 50  1  0
 10 51  1  0
 12 52  1  0
 18 53  1  0
 20 54  1  0
 21 55  1  0
 22 56  1  0
 23 57  1  0
 25 58  1  0
 26 59  1  0
 27 60  1  0
 28 61  1  0
 28 62  1  0
 32 63  1  0
 33 64  1  0
 34 65  1  0
 36 66  1  0
M  CHG  2   2   1   7  -1
M  END
>  <SMILES_raw>  (110) 
CC[C@H](C)[C@@H](C(O)=O)NCC1=CN(C2=CC=C(Br)C=C2)N=C1C3=CC=CC=C3OCC4=CC=CC(Cl)=C4

>  <Protonation_Method>  (110) 
MolScrub

>  <Target_pH>  (110) 
7.4

$$$$
N-((3-(2-((2-chlorobenzyl)oxy)phenyl)-1-(3-nitrophenyl)-1H-pyrazol-4-yl)methyl)-ʟ-valin
     RDKit          3D

 65 68  0  0  0  0  0  0  0  0999 V2000
   -3.3453   -1.8629   -1.1917 C   0  0  2  0  0  0  0  0  0  0  0  0
   -2.2225   -0.9031   -0.8088 N   0  0  0  0  0  0  0  0  0  0  0  0
   -2.2403    0.3750   -1.5453 C   0  0  0  0  0  0  0  0  0  0  0  0
   -4.6219   -1.5126   -0.3542 C   0  0  0  0  0  0  0  0  0  0  0  0
   -2.9247   -3.3237   -0.9561 C   0  0  0  0  0  0  0  0  0  0  0  0
   -4.3242   -0.6778    0.5639 O   0  0  0  0  0  0  0  0  0  0  0  0
   -5.7011   -2.0321   -0.7085 O   0  0  0  0  0  0  0  0  0  0  0  0
   -2.4872   -3.6116    0.4831 C   0  0  0  0  0  0  0  0  0  0  0  0
   -1.8277   -3.7584   -1.9329 C   0  0  0  0  0  0  0  0  0  0  0  0
   -1.3821    1.3836   -0.8782 C   0  0  0  0  0  0  0  0  0  0  0  0
   -1.7651    2.3373    0.0442 C   0  0  0  0  0  0  0  0  0  0  0  0
    0.0155    1.5755   -1.0195 C   0  0  0  0  0  0  0  0  0  0  0  0
   -0.6410    3.0468    0.3974 N   0  0  0  0  0  0  0  0  0  0  0  0
    0.4465    2.5944   -0.2691 N   0  0  0  0  0  0  0  0  0  0  0  0
    0.9447    0.7960   -1.8252 C   0  0  0  0  0  0  0  0  0  0  0  0
   -0.5269    4.1144    1.3314 C   0  0  0  0  0  0  0  0  0  0  0  0
    1.5729    1.3910   -2.9254 C   0  0  0  0  0  0  0  0  0  0  0  0
    1.2194   -0.5484   -1.5274 C   0  0  0  0  0  0  0  0  0  0  0  0
   -1.6439    4.5765    2.0446 C   0  0  0  0  0  0  0  0  0  0  0  0
    0.7275    4.7091    1.5473 C   0  0  0  0  0  0  0  0  0  0  0  0
    2.4314    0.6418   -3.7343 C   0  0  0  0  0  0  0  0  0  0  0  0
    2.0558   -1.3034   -2.3499 C   0  0  0  0  0  0  0  0  0  0  0  0
    0.6386   -1.1803   -0.4515 O   0  0  0  0  0  0  0  0  0  0  0  0
   -1.5113    5.6236    2.9628 C   0  0  0  0  0  0  0  0  0  0  0  0
    0.8476    5.7586    2.4702 C   0  0  0  0  0  0  0  0  0  0  0  0
    2.6666   -0.7040   -3.4507 C   0  0  0  0  0  0  0  0  0  0  0  0
    1.3927   -0.9220    0.7544 C   0  0  0  0  0  0  0  0  0  0  0  0
   -0.2686    6.2195    3.1790 C   0  0  0  0  0  0  0  0  0  0  0  0
    2.1577    6.3806    2.7003 N   0  0  0  0  0  0  0  0  0  0  0  0
    2.3456   -2.0576    1.0421 C   0  0  0  0  0  0  0  0  0  0  0  0
    2.1977    7.3861    3.4234 O   0  0  0  0  0  0  0  0  0  0  0  0
    3.1453    5.8636    2.1603 O   0  0  0  0  0  0  0  0  0  0  0  0
    1.8162   -3.3167    1.3805 C   0  0  0  0  0  0  0  0  0  0  0  0
    3.7406   -1.9179    0.9786 C   0  0  0  0  0  0  0  0  0  0  0  0
    2.6543   -4.3983    1.6538 C   0  0  0  0  0  0  0  0  0  0  0  0
    4.5774   -3.0034    1.2576 C   0  0  0  0  0  0  0  0  0  0  0  0
    4.4986   -0.4252    0.5516 Cl  0  0  0  0  0  0  0  0  0  0  0  0
    4.0352   -4.2420    1.5956 C   0  0  0  0  0  0  0  0  0  0  0  0
   -3.5581   -1.6993   -2.2539 H   0  0  0  0  0  0  0  0  0  0  0  0
   -1.2854   -1.3113   -0.7415 H   0  0  0  0  0  0  0  0  0  0  0  0
   -2.5352   -0.6496    0.1558 H   0  0  0  0  0  0  0  0  0  0  0  0
   -1.9058    0.1677   -2.5659 H   0  0  0  0  0  0  0  0  0  0  0  0
   -3.2750    0.7279   -1.5871 H   0  0  0  0  0  0  0  0  0  0  0  0
   -3.7980   -3.9576   -1.1565 H   0  0  0  0  0  0  0  0  0  0  0  0
   -3.2634   -3.3242    1.2000 H   0  0  0  0  0  0  0  0  0  0  0  0
   -1.5671   -3.0794    0.7441 H   0  0  0  0  0  0  0  0  0  0  0  0
   -2.3039   -4.6853    0.6173 H   0  0  0  0  0  0  0  0  0  0  0  0
   -1.6504   -4.8366   -1.8531 H   0  0  0  0  0  0  0  0  0  0  0  0
   -2.1190   -3.5457   -2.9662 H   0  0  0  0  0  0  0  0  0  0  0  0
   -0.8764   -3.2538   -1.7355 H   0  0  0  0  0  0  0  0  0  0  0  0
   -2.7376    2.5473    0.4666 H   0  0  0  0  0  0  0  0  0  0  0  0
    1.4013    2.4406   -3.1535 H   0  0  0  0  0  0  0  0  0  0  0  0
   -2.6333    4.1438    1.9169 H   0  0  0  0  0  0  0  0  0  0  0  0
    1.6037    4.3603    1.0000 H   0  0  0  0  0  0  0  0  0  0  0  0
    2.9245    1.1118   -4.5818 H   0  0  0  0  0  0  0  0  0  0  0  0
    2.2609   -2.3467   -2.1215 H   0  0  0  0  0  0  0  0  0  0  0  0
   -2.3822    5.9745    3.5137 H   0  0  0  0  0  0  0  0  0  0  0  0
    3.3386   -1.2827   -4.0801 H   0  0  0  0  0  0  0  0  0  0  0  0
    1.8770    0.0610    0.7439 H   0  0  0  0  0  0  0  0  0  0  0  0
    0.6622   -0.8728    1.5708 H   0  0  0  0  0  0  0  0  0  0  0  0
   -0.1882    7.0317    3.9005 H   0  0  0  0  0  0  0  0  0  0  0  0
    0.7401   -3.4598    1.4343 H   0  0  0  0  0  0  0  0  0  0  0  0
    2.2292   -5.3645    1.9144 H   0  0  0  0  0  0  0  0  0  0  0  0
    5.6572   -2.8884    1.2124 H   0  0  0  0  0  0  0  0  0  0  0  0
    4.6903   -5.0808    1.8123 H   0  0  0  0  0  0  0  0  0  0  0  0
  1  2  1  0
  2  3  1  0
  1  4  1  0
  5  1  1  0
  4  6  2  0
  4  7  1  0
  8  5  1  0
  5  9  1  0
  3 10  1  0
 10 11  2  0
 12 10  1  0
 11 13  1  0
 14 12  2  0
 12 15  1  0
 13 16  1  0
 13 14  1  0
 15 17  2  0
 18 15  1  0
 16 19  2  0
 20 16  1  0
 17 21  1  0
 22 18  2  0
 18 23  1  0
 19 24  1  0
 25 20  2  0
 21 26  2  0
 26 22  1  0
 23 27  1  0
 24 28  2  0
 28 25  1  0
 25 29  1  0
 27 30  1  0
 29 31  1  0
 29 32  2  0
 30 33  2  0
 34 30  1  0
 33 35  1  0
 36 34  2  0
 34 37  1  0
 35 38  2  0
 38 36  1  0
  1 39  1  6
  2 40  1  0
  2 41  1  0
  3 42  1  0
  3 43  1  0
  5 44  1  0
  8 45  1  0
  8 46  1  0
  8 47  1  0
  9 48  1  0
  9 49  1  0
  9 50  1  0
 11 51  1  0
 17 52  1  0
 19 53  1  0
 20 54  1  0
 21 55  1  0
 22 56  1  0
 24 57  1  0
 26 58  1  0
 27 59  1  0
 27 60  1  0
 28 61  1  0
 33 62  1  0
 35 63  1  0
 36 64  1  0
 38 65  1  0
M  CHG  4   2   1   7  -1  29   1  31  -1
M  END
>  <SMILES_raw>  (111) 
CC(C)[C@@H](C(O)=O)NCC1=CN(C2=CC=CC([N+]([O-])=O)=C2)N=C1C3=CC=CC=C3OCC4=CC=CC=C4Cl

>  <Protonation_Method>  (111) 
MolScrub

>  <Target_pH>  (111) 
7.4

$$$$
N-((1-(4-bromophenyl)-3-(2-((3-chlorobenzyl)oxy)phenyl)-1H-pyrazol-4-yl)methyl)glycin
     RDKit          3D

 54 57  0  0  0  0  0  0  0  0999 V2000
   -2.6876    3.9619   -0.3713 C   0  0  0  0  0  0  0  0  0  0  0  0
   -2.4735    2.5811    0.2293 N   0  0  0  0  0  0  0  0  0  0  0  0
   -1.2389    1.9031   -0.2253 C   0  0  0  0  0  0  0  0  0  0  0  0
   -3.3983    3.8331   -1.7440 C   0  0  0  0  0  0  0  0  0  0  0  0
   -3.4007    4.8416   -2.4806 O   0  0  0  0  0  0  0  0  0  0  0  0
   -3.8431    2.6465   -1.8921 O   0  0  0  0  0  0  0  0  0  0  0  0
   -1.3552    0.4344   -0.0343 C   0  0  0  0  0  0  0  0  0  0  0  0
   -2.1146   -0.4329   -0.7975 C   0  0  0  0  0  0  0  0  0  0  0  0
   -0.7650   -0.3943    0.9555 C   0  0  0  0  0  0  0  0  0  0  0  0
   -1.9761   -1.6912   -0.2614 N   0  0  0  0  0  0  0  0  0  0  0  0
   -1.1760   -1.6625    0.8317 N   0  0  0  0  0  0  0  0  0  0  0  0
    0.1308   -0.0084    2.0415 C   0  0  0  0  0  0  0  0  0  0  0  0
   -2.5587   -2.9091   -0.7132 C   0  0  0  0  0  0  0  0  0  0  0  0
   -0.2266   -0.3057    3.3638 C   0  0  0  0  0  0  0  0  0  0  0  0
    1.3348    0.6688    1.8052 C   0  0  0  0  0  0  0  0  0  0  0  0
   -3.3939   -2.9405   -1.8397 C   0  0  0  0  0  0  0  0  0  0  0  0
   -2.2915   -4.1019   -0.0180 C   0  0  0  0  0  0  0  0  0  0  0  0
    0.5822    0.1067    4.4265 C   0  0  0  0  0  0  0  0  0  0  0  0
    2.1283    1.1095    2.8667 C   0  0  0  0  0  0  0  0  0  0  0  0
    1.7603    0.9617    0.5348 O   0  0  0  0  0  0  0  0  0  0  0  0
   -3.9532   -4.1531   -2.2619 C   0  0  0  0  0  0  0  0  0  0  0  0
   -2.8528   -5.3083   -0.4443 C   0  0  0  0  0  0  0  0  0  0  0  0
    1.7548    0.8190    4.1766 C   0  0  0  0  0  0  0  0  0  0  0  0
    2.4656   -0.1576   -0.0265 C   0  0  0  0  0  0  0  0  0  0  0  0
   -3.6800   -5.3277   -1.5645 C   0  0  0  0  0  0  0  0  0  0  0  0
    3.7166    0.3722   -0.6825 C   0  0  0  0  0  0  0  0  0  0  0  0
   -4.4390   -6.9566   -2.1399 Br  0  0  0  0  0  0  0  0  0  0  0  0
    3.6965    0.8238   -2.0097 C   0  0  0  0  0  0  0  0  0  0  0  0
    4.9104    0.4636    0.0493 C   0  0  0  0  0  0  0  0  0  0  0  0
    4.8515    1.3435   -2.5989 C   0  0  0  0  0  0  0  0  0  0  0  0
    6.0596    0.9835   -0.5444 C   0  0  0  0  0  0  0  0  0  0  0  0
    6.0358    1.4232   -1.8654 C   0  0  0  0  0  0  0  0  0  0  0  0
    7.5141    1.0899    0.3676 Cl  0  0  0  0  0  0  0  0  0  0  0  0
   -3.3418    4.4990    0.3251 H   0  0  0  0  0  0  0  0  0  0  0  0
   -1.7175    4.4633   -0.4329 H   0  0  0  0  0  0  0  0  0  0  0  0
   -3.2520    2.0727   -0.2523 H   0  0  0  0  0  0  0  0  0  0  0  0
   -2.6375    2.5297    1.2352 H   0  0  0  0  0  0  0  0  0  0  0  0
   -1.0943    2.1293   -1.2890 H   0  0  0  0  0  0  0  0  0  0  0  0
   -0.4179    2.3503    0.3352 H   0  0  0  0  0  0  0  0  0  0  0  0
   -2.7372   -0.2372   -1.6590 H   0  0  0  0  0  0  0  0  0  0  0  0
   -1.1433   -0.8554    3.5727 H   0  0  0  0  0  0  0  0  0  0  0  0
   -3.6370   -2.0474   -2.4124 H   0  0  0  0  0  0  0  0  0  0  0  0
   -1.6476   -4.1079    0.8596 H   0  0  0  0  0  0  0  0  0  0  0  0
    0.2950   -0.1231    5.4514 H   0  0  0  0  0  0  0  0  0  0  0  0
    3.0412    1.6678    2.6746 H   0  0  0  0  0  0  0  0  0  0  0  0
   -4.6001   -4.1663   -3.1369 H   0  0  0  0  0  0  0  0  0  0  0  0
   -2.6380   -6.2216    0.1051 H   0  0  0  0  0  0  0  0  0  0  0  0
    2.3799    1.1503    5.0039 H   0  0  0  0  0  0  0  0  0  0  0  0
    2.7341   -0.9202    0.7215 H   0  0  0  0  0  0  0  0  0  0  0  0
    1.8213   -0.6384   -0.7723 H   0  0  0  0  0  0  0  0  0  0  0  0
    2.7772    0.7798   -2.5927 H   0  0  0  0  0  0  0  0  0  0  0  0
    4.9412    0.1305    1.0840 H   0  0  0  0  0  0  0  0  0  0  0  0
    4.8279    1.6935   -3.6282 H   0  0  0  0  0  0  0  0  0  0  0  0
    6.9299    1.8339   -2.3256 H   0  0  0  0  0  0  0  0  0  0  0  0
  1  2  1  0
  2  3  1  0
  1  4  1  0
  4  5  2  0
  4  6  1  0
  3  7  1  0
  7  8  2  0
  9  7  1  0
  8 10  1  0
 11  9  2  0
  9 12  1  0
 10 13  1  0
 10 11  1  0
 12 14  2  0
 15 12  1  0
 13 16  2  0
 17 13  1  0
 14 18  1  0
 19 15  2  0
 15 20  1  0
 16 21  1  0
 22 17  2  0
 18 23  2  0
 23 19  1  0
 20 24  1  0
 21 25  2  0
 25 22  1  0
 24 26  1  0
 25 27  1  0
 26 28  2  0
 29 26  1  0
 28 30  1  0
 31 29  2  0
 30 32  2  0
 32 31  1  0
 31 33  1  0
  1 34  1  0
  1 35  1  0
  2 36  1  0
  2 37  1  0
  3 38  1  0
  3 39  1  0
  8 40  1  0
 14 41  1  0
 16 42  1  0
 17 43  1  0
 18 44  1  0
 19 45  1  0
 21 46  1  0
 22 47  1  0
 23 48  1  0
 24 49  1  0
 24 50  1  0
 28 51  1  0
 29 52  1  0
 30 53  1  0
 32 54  1  0
M  CHG  2   2   1   6  -1
M  END
>  <SMILES_raw>  (112) 
O=C(O)CNCC1=CN(C2=CC=C(Br)C=C2)N=C1C3=CC=CC=C3OCC4=CC=CC(Cl)=C4

>  <Protonation_Method>  (112) 
MolScrub

>  <Target_pH>  (112) 
7.4

$$$$
N-((3-(2-((4-chlorobenzyl)oxy)phenyl)-1-(3-nitrophenyl)-1H-pyrazol-4-yl)methyl)-ʟ-phenylalanin
     RDKit          3D

 69 73  0  0  0  0  0  0  0  0999 V2000
   -2.5611   -1.6559    1.4824 C   0  0  2  0  0  0  0  0  0  0  0  0
   -1.5238   -0.6122    1.0639 N   0  0  0  0  0  0  0  0  0  0  0  0
   -1.8602    0.3917    0.0637 C   0  0  0  0  0  0  0  0  0  0  0  0
   -2.0402   -2.3836    2.7630 C   0  0  0  0  0  0  0  0  0  0  0  0
   -2.8124   -2.6483    0.3376 C   0  0  0  0  0  0  0  0  0  0  0  0
   -2.6308   -3.4217    3.1319 O   0  0  0  0  0  0  0  0  0  0  0  0
   -1.0211   -1.7735    3.2245 O   0  0  0  0  0  0  0  0  0  0  0  0
   -4.2785   -2.6969   -0.0290 C   0  0  0  0  0  0  0  0  0  0  0  0
   -4.7997   -1.9100   -1.0686 C   0  0  0  0  0  0  0  0  0  0  0  0
   -5.1501   -3.5013    0.7178 C   0  0  0  0  0  0  0  0  0  0  0  0
   -6.1667   -1.9321   -1.3516 C   0  0  0  0  0  0  0  0  0  0  0  0
   -6.5137   -3.5292    0.4268 C   0  0  0  0  0  0  0  0  0  0  0  0
   -7.0219   -2.7442   -0.6065 C   0  0  0  0  0  0  0  0  0  0  0  0
   -0.7051    1.2692   -0.2489 C   0  0  0  0  0  0  0  0  0  0  0  0
   -0.5025    2.5711    0.1654 C   0  0  0  0  0  0  0  0  0  0  0  0
    0.4296    0.9782   -1.0627 C   0  0  0  0  0  0  0  0  0  0  0  0
    0.6672    3.0122   -0.4107 N   0  0  0  0  0  0  0  0  0  0  0  0
    1.2244    2.0484   -1.1803 N   0  0  0  0  0  0  0  0  0  0  0  0
    0.7517   -0.2691   -1.7597 C   0  0  0  0  0  0  0  0  0  0  0  0
    1.2799    4.2921   -0.2833 C   0  0  0  0  0  0  0  0  0  0  0  0
    0.7936   -0.2616   -3.1625 C   0  0  0  0  0  0  0  0  0  0  0  0
    1.0250   -1.4651   -1.0627 C   0  0  0  0  0  0  0  0  0  0  0  0
    2.4721    4.5594   -0.9794 C   0  0  0  0  0  0  0  0  0  0  0  0
    0.7180    5.2901    0.5274 C   0  0  0  0  0  0  0  0  0  0  0  0
    1.0633   -1.4367   -3.8666 C   0  0  0  0  0  0  0  0  0  0  0  0
    1.2819   -2.6379   -1.7773 C   0  0  0  0  0  0  0  0  0  0  0  0
    0.9715   -1.4114    0.3097 O   0  0  0  0  0  0  0  0  0  0  0  0
    3.0964    5.8059   -0.8725 C   0  0  0  0  0  0  0  0  0  0  0  0
    1.3551    6.5382    0.6283 C   0  0  0  0  0  0  0  0  0  0  0  0
    1.2966   -2.6224   -3.1755 C   0  0  0  0  0  0  0  0  0  0  0  0
    1.8102   -2.3005    1.0690 C   0  0  0  0  0  0  0  0  0  0  0  0
    2.5423    6.7996   -0.0673 C   0  0  0  0  0  0  0  0  0  0  0  0
    0.7700    7.5805    1.4807 N   0  0  0  0  0  0  0  0  0  0  0  0
    3.2787   -1.9403    1.0170 C   0  0  0  0  0  0  0  0  0  0  0  0
    1.3973    8.6414    1.6077 O   0  0  0  0  0  0  0  0  0  0  0  0
   -0.3169    7.3337    2.0218 O   0  0  0  0  0  0  0  0  0  0  0  0
    3.6975   -0.6023    0.9776 C   0  0  0  0  0  0  0  0  0  0  0  0
    4.2481   -2.9506    1.1050 C   0  0  0  0  0  0  0  0  0  0  0  0
    5.0566   -0.2797    1.0057 C   0  0  0  0  0  0  0  0  0  0  0  0
    5.6071   -2.6296    1.1345 C   0  0  0  0  0  0  0  0  0  0  0  0
    6.0048   -1.2952    1.0846 C   0  0  0  0  0  0  0  0  0  0  0  0
    7.6778   -0.9001    1.1385 Cl  0  0  0  0  0  0  0  0  0  0  0  0
   -3.4521   -1.0830    1.7659 H   0  0  0  0  0  0  0  0  0  0  0  0
   -0.6671   -1.1333    0.8213 H   0  0  0  0  0  0  0  0  0  0  0  0
   -1.2211   -0.2214    1.9795 H   0  0  0  0  0  0  0  0  0  0  0  0
   -2.7029    0.9728    0.4560 H   0  0  0  0  0  0  0  0  0  0  0  0
   -2.1888   -0.1257   -0.8416 H   0  0  0  0  0  0  0  0  0  0  0  0
   -2.2395   -2.3890   -0.5622 H   0  0  0  0  0  0  0  0  0  0  0  0
   -2.4793   -3.6639    0.5886 H   0  0  0  0  0  0  0  0  0  0  0  0
   -4.1540   -1.2847   -1.6767 H   0  0  0  0  0  0  0  0  0  0  0  0
   -4.7674   -4.1149    1.5356 H   0  0  0  0  0  0  0  0  0  0  0  0
   -6.5713   -1.3175   -2.1538 H   0  0  0  0  0  0  0  0  0  0  0  0
   -7.1769   -4.1653    1.0099 H   0  0  0  0  0  0  0  0  0  0  0  0
   -8.0858   -2.7639   -0.8319 H   0  0  0  0  0  0  0  0  0  0  0  0
   -1.1055    3.2055    0.7990 H   0  0  0  0  0  0  0  0  0  0  0  0
    0.6257    0.6642   -3.7093 H   0  0  0  0  0  0  0  0  0  0  0  0
    2.9302    3.8032   -1.6175 H   0  0  0  0  0  0  0  0  0  0  0  0
   -0.1986    5.1169    1.0852 H   0  0  0  0  0  0  0  0  0  0  0  0
    1.0850   -1.4306   -4.9560 H   0  0  0  0  0  0  0  0  0  0  0  0
    1.4536   -3.5877   -1.2845 H   0  0  0  0  0  0  0  0  0  0  0  0
    4.0182    5.9988   -1.4186 H   0  0  0  0  0  0  0  0  0  0  0  0
    1.5011   -3.5400   -3.7234 H   0  0  0  0  0  0  0  0  0  0  0  0
    1.6224   -3.3455    0.8006 H   0  0  0  0  0  0  0  0  0  0  0  0
    1.4923   -2.2020    2.1139 H   0  0  0  0  0  0  0  0  0  0  0  0
    3.0460    7.7614    0.0080 H   0  0  0  0  0  0  0  0  0  0  0  0
    2.9650    0.2006    0.9332 H   0  0  0  0  0  0  0  0  0  0  0  0
    3.9508   -3.9962    1.1713 H   0  0  0  0  0  0  0  0  0  0  0  0
    5.3620    0.7629    0.9780 H   0  0  0  0  0  0  0  0  0  0  0  0
    6.3460   -3.4216    1.2099 H   0  0  0  0  0  0  0  0  0  0  0  0
  1  2  1  0
  2  3  1  0
  1  4  1  0
  1  5  1  0
  4  6  2  0
  4  7  1  0
  5  8  1  0
  8  9  2  0
 10  8  1  0
  9 11  1  0
 12 10  2  0
 11 13  2  0
 13 12  1  0
  3 14  1  0
 14 15  2  0
 16 14  1  0
 15 17  1  0
 18 16  2  0
 16 19  1  0
 17 20  1  0
 17 18  1  0
 19 21  2  0
 22 19  1  0
 20 23  2  0
 24 20  1  0
 21 25  1  0
 26 22  2  0
 22 27  1  0
 23 28  1  0
 29 24  2  0
 25 30  2  0
 30 26  1  0
 27 31  1  0
 28 32  2  0
 32 29  1  0
 29 33  1  0
 31 34  1  0
 33 35  1  0
 33 36  2  0
 34 37  2  0
 38 34  1  0
 37 39  1  0
 40 38  2  0
 39 41  2  0
 41 40  1  0
 41 42  1  0
  1 43  1  1
  2 44  1  0
  2 45  1  0
  3 46  1  0
  3 47  1  0
  5 48  1  0
  5 49  1  0
  9 50  1  0
 10 51  1  0
 11 52  1  0
 12 53  1  0
 13 54  1  0
 15 55  1  0
 21 56  1  0
 23 57  1  0
 24 58  1  0
 25 59  1  0
 26 60  1  0
 28 61  1  0
 30 62  1  0
 31 63  1  0
 31 64  1  0
 32 65  1  0
 37 66  1  0
 38 67  1  0
 39 68  1  0
 40 69  1  0
M  CHG  4   2   1   7  -1  33   1  35  -1
M  END
>  <SMILES_raw>  (113) 
O=C(O)[C@H](CC1=CC=CC=C1)NCC2=CN(C3=CC=CC([N+]([O-])=O)=C3)N=C2C4=CC=CC=C4OCC5=CC=C(Cl)C=C5

>  <Protonation_Method>  (113) 
MolScrub

>  <Target_pH>  (113) 
7.4

$$$$
N-((3-(2-((4-chlorobenzyl)oxy)phenyl)-1-(3-nitrophenyl)-1H-pyrazol-4-yl)methyl)-ʟ-alanin
     RDKit          3D

 59 62  0  0  0  0  0  0  0  0999 V2000
   -3.3667   -3.8207    0.5049 C   0  0  2  0  0  0  0  0  0  0  0  0
   -2.8499   -2.4282    0.1704 N   0  0  0  0  0  0  0  0  0  0  0  0
   -1.5116   -1.9982    0.5858 C   0  0  0  0  0  0  0  0  0  0  0  0
   -4.9275   -3.7562    0.5549 C   0  0  0  0  0  0  0  0  0  0  0  0
   -2.9102   -4.2707    1.8881 C   0  0  0  0  0  0  0  0  0  0  0  0
   -5.5498   -4.8384    0.5061 O   0  0  0  0  0  0  0  0  0  0  0  0
   -5.3074   -2.5375    0.6015 O   0  0  0  0  0  0  0  0  0  0  0  0
   -1.2099   -0.6457    0.0522 C   0  0  0  0  0  0  0  0  0  0  0  0
   -1.8877    0.5315    0.3160 C   0  0  0  0  0  0  0  0  0  0  0  0
   -0.1838   -0.2658   -0.8574 C   0  0  0  0  0  0  0  0  0  0  0  0
   -1.2945    1.5249   -0.4273 N   0  0  0  0  0  0  0  0  0  0  0  0
   -0.2774    1.0328   -1.1666 N   0  0  0  0  0  0  0  0  0  0  0  0
    0.8449   -1.1030   -1.4759 C   0  0  0  0  0  0  0  0  0  0  0  0
   -1.6380    2.9052   -0.4924 C   0  0  0  0  0  0  0  0  0  0  0  0
    0.9637   -1.1009   -2.8743 C   0  0  0  0  0  0  0  0  0  0  0  0
    1.7293   -1.8874   -0.7132 C   0  0  0  0  0  0  0  0  0  0  0  0
   -2.6720    3.4349    0.2944 C   0  0  0  0  0  0  0  0  0  0  0  0
   -0.9283    3.7501   -1.3636 C   0  0  0  0  0  0  0  0  0  0  0  0
    1.9192   -1.8964   -3.5081 C   0  0  0  0  0  0  0  0  0  0  0  0
    2.6629   -2.7082   -1.3558 C   0  0  0  0  0  0  0  0  0  0  0  0
    1.6125   -1.8478    0.6573 O   0  0  0  0  0  0  0  0  0  0  0  0
   -2.9995    4.7940    0.2071 C   0  0  0  0  0  0  0  0  0  0  0  0
   -1.2671    5.1096   -1.4447 C   0  0  0  0  0  0  0  0  0  0  0  0
    2.7592   -2.7063   -2.7497 C   0  0  0  0  0  0  0  0  0  0  0  0
    2.8473   -1.6705    1.3711 C   0  0  0  0  0  0  0  0  0  0  0  0
   -2.3026    5.6351   -0.6624 C   0  0  0  0  0  0  0  0  0  0  0  0
   -0.5328    5.9928   -2.3610 N   0  0  0  0  0  0  0  0  0  0  0  0
    3.4872   -0.3206    1.1339 C   0  0  0  0  0  0  0  0  0  0  0  0
    0.3189    5.4798   -3.1014 O   0  0  0  0  0  0  0  0  0  0  0  0
   -0.8116    7.2008   -2.3404 O   0  0  0  0  0  0  0  0  0  0  0  0
    4.8227   -0.2327    0.7106 C   0  0  0  0  0  0  0  0  0  0  0  0
    2.7593    0.8639    1.3462 C   0  0  0  0  0  0  0  0  0  0  0  0
    5.4154    1.0138    0.4887 C   0  0  0  0  0  0  0  0  0  0  0  0
    3.3526    2.1100    1.1242 C   0  0  0  0  0  0  0  0  0  0  0  0
    4.6775    2.1788    0.6971 C   0  0  0  0  0  0  0  0  0  0  0  0
    5.4095    3.7096    0.4234 Cl  0  0  0  0  0  0  0  0  0  0  0  0
   -3.0124   -4.4906   -0.2864 H   0  0  0  0  0  0  0  0  0  0  0  0
   -3.6189   -1.8357    0.5700 H   0  0  0  0  0  0  0  0  0  0  0  0
   -3.0021   -2.2870   -0.8357 H   0  0  0  0  0  0  0  0  0  0  0  0
   -0.8167   -2.7600    0.2240 H   0  0  0  0  0  0  0  0  0  0  0  0
   -1.4925   -1.9755    1.6783 H   0  0  0  0  0  0  0  0  0  0  0  0
   -3.3179   -5.2583    2.1348 H   0  0  0  0  0  0  0  0  0  0  0  0
   -3.2486   -3.5799    2.6654 H   0  0  0  0  0  0  0  0  0  0  0  0
   -1.8216   -4.3513    1.9491 H   0  0  0  0  0  0  0  0  0  0  0  0
   -2.7405    0.7227    0.9511 H   0  0  0  0  0  0  0  0  0  0  0  0
    0.3212   -0.4617   -3.4773 H   0  0  0  0  0  0  0  0  0  0  0  0
   -3.2448    2.8241    0.9882 H   0  0  0  0  0  0  0  0  0  0  0  0
   -0.1211    3.3527   -1.9787 H   0  0  0  0  0  0  0  0  0  0  0  0
    2.0154   -1.8701   -4.5901 H   0  0  0  0  0  0  0  0  0  0  0  0
    3.3291   -3.3565   -0.7959 H   0  0  0  0  0  0  0  0  0  0  0  0
   -3.8048    5.1974    0.8180 H   0  0  0  0  0  0  0  0  0  0  0  0
    3.5008   -3.3302   -3.2444 H   0  0  0  0  0  0  0  0  0  0  0  0
    3.5405   -2.4985    1.1800 H   0  0  0  0  0  0  0  0  0  0  0  0
    2.6009   -1.7392    2.4371 H   0  0  0  0  0  0  0  0  0  0  0  0
   -2.5777    6.6887   -0.7177 H   0  0  0  0  0  0  0  0  0  0  0  0
    5.4106   -1.1311    0.5473 H   0  0  0  0  0  0  0  0  0  0  0  0
    1.7207    0.8224    1.6707 H   0  0  0  0  0  0  0  0  0  0  0  0
    6.4490    1.0681    0.1569 H   0  0  0  0  0  0  0  0  0  0  0  0
    2.7774    3.0169    1.2789 H   0  0  0  0  0  0  0  0  0  0  0  0
  1  2  1  0
  2  3  1  0
  1  4  1  0
  5  1  1  0
  4  6  2  0
  4  7  1  0
  3  8  1  0
  8  9  2  0
 10  8  1  0
  9 11  1  0
 12 10  2  0
 10 13  1  0
 11 14  1  0
 11 12  1  0
 13 15  2  0
 16 13  1  0
 14 17  2  0
 18 14  1  0
 15 19  1  0
 20 16  2  0
 16 21  1  0
 17 22  1  0
 23 18  2  0
 19 24  2  0
 24 20  1  0
 21 25  1  0
 22 26  2  0
 26 23  1  0
 23 27  1  0
 25 28  1  0
 27 29  1  0
 27 30  2  0
 28 31  2  0
 32 28  1  0
 31 33  1  0
 34 32  2  0
 33 35  2  0
 35 34  1  0
 35 36  1  0
  1 37  1  6
  2 38  1  0
  2 39  1  0
  3 40  1  0
  3 41  1  0
  5 42  1  0
  5 43  1  0
  5 44  1  0
  9 45  1  0
 15 46  1  0
 17 47  1  0
 18 48  1  0
 19 49  1  0
 20 50  1  0
 22 51  1  0
 24 52  1  0
 25 53  1  0
 25 54  1  0
 26 55  1  0
 31 56  1  0
 32 57  1  0
 33 58  1  0
 34 59  1  0
M  CHG  4   2   1   7  -1  27   1  29  -1
M  END
>  <SMILES_raw>  (114) 
C[C@@H](C(O)=O)NCC1=CN(C2=CC=CC([N+]([O-])=O)=C2)N=C1C3=CC=CC=C3OCC4=CC=C(Cl)C=C4

>  <Protonation_Method>  (114) 
MolScrub

>  <Target_pH>  (114) 
7.4

$$$$
N-((1-(4-bromophenyl)-3-(2-((3-chlorobenzyl)oxy)phenyl)-1H-pyrazol-4-yl)methyl)-ʟ-alanin
     RDKit          3D

 57 60  0  0  0  0  0  0  0  0999 V2000
   -2.4414   -3.3645   -1.5665 C   0  0  2  0  0  0  0  0  0  0  0  0
   -2.1300   -2.0817   -0.7938 N   0  0  0  0  0  0  0  0  0  0  0  0
   -1.0333   -1.2550   -1.3038 C   0  0  0  0  0  0  0  0  0  0  0  0
   -3.9810   -3.4495   -1.7931 C   0  0  0  0  0  0  0  0  0  0  0  0
   -1.8780   -4.5411   -0.7952 C   0  0  0  0  0  0  0  0  0  0  0  0
   -4.4535   -4.5332   -2.1933 O   0  0  0  0  0  0  0  0  0  0  0  0
   -4.5130   -2.3271   -1.4988 O   0  0  0  0  0  0  0  0  0  0  0  0
   -0.8134   -0.0475   -0.4714 C   0  0  0  0  0  0  0  0  0  0  0  0
   -0.9705    1.2724   -0.8462 C   0  0  0  0  0  0  0  0  0  0  0  0
   -0.3947    0.0235    0.8869 C   0  0  0  0  0  0  0  0  0  0  0  0
   -0.6321    2.0541    0.2355 N   0  0  0  0  0  0  0  0  0  0  0  0
   -0.3374    1.2895    1.3143 N   0  0  0  0  0  0  0  0  0  0  0  0
   -0.0887   -1.0780    1.7937 C   0  0  0  0  0  0  0  0  0  0  0  0
   -0.5599    3.4739    0.3069 C   0  0  0  0  0  0  0  0  0  0  0  0
   -0.8365   -1.2199    2.9708 C   0  0  0  0  0  0  0  0  0  0  0  0
    0.9153   -2.0169    1.5135 C   0  0  0  0  0  0  0  0  0  0  0  0
   -0.8351    4.2746   -0.8108 C   0  0  0  0  0  0  0  0  0  0  0  0
   -0.1903    4.0841    1.5170 C   0  0  0  0  0  0  0  0  0  0  0  0
   -0.6090   -2.2996    3.8276 C   0  0  0  0  0  0  0  0  0  0  0  0
    1.1292   -3.1080    2.3578 C   0  0  0  0  0  0  0  0  0  0  0  0
    1.6817   -1.9311    0.3809 O   0  0  0  0  0  0  0  0  0  0  0  0
   -0.7411    5.6675   -0.7150 C   0  0  0  0  0  0  0  0  0  0  0  0
   -0.0972    5.4755    1.6077 C   0  0  0  0  0  0  0  0  0  0  0  0
    0.3671   -3.2461    3.5168 C   0  0  0  0  0  0  0  0  0  0  0  0
    2.8362   -1.1009    0.6001 C   0  0  0  0  0  0  0  0  0  0  0  0
   -0.3728    6.2603    0.4913 C   0  0  0  0  0  0  0  0  0  0  0  0
    2.8812   -0.0411   -0.4739 C   0  0  0  0  0  0  0  0  0  0  0  0
   -0.2457    8.1420    0.6112 Br  0  0  0  0  0  0  0  0  0  0  0  0
    2.9097    1.3193   -0.1334 C   0  0  0  0  0  0  0  0  0  0  0  0
    2.8818   -0.4003   -1.8300 C   0  0  0  0  0  0  0  0  0  0  0  0
    2.9250    2.3017   -1.1261 C   0  0  0  0  0  0  0  0  0  0  0  0
    2.8909    0.5854   -2.8167 C   0  0  0  0  0  0  0  0  0  0  0  0
    2.9128    1.9345   -2.4708 C   0  0  0  0  0  0  0  0  0  0  0  0
    2.8573    0.1284   -4.4749 Cl  0  0  0  0  0  0  0  0  0  0  0  0
   -1.9633   -3.2729   -2.5487 H   0  0  0  0  0  0  0  0  0  0  0  0
   -2.0897   -2.2697    0.2104 H   0  0  0  0  0  0  0  0  0  0  0  0
   -3.0475   -1.5799   -0.9107 H   0  0  0  0  0  0  0  0  0  0  0  0
   -1.2946   -0.9735   -2.3302 H   0  0  0  0  0  0  0  0  0  0  0  0
   -0.1396   -1.8817   -1.3461 H   0  0  0  0  0  0  0  0  0  0  0  0
   -2.3819   -4.6638    0.1702 H   0  0  0  0  0  0  0  0  0  0  0  0
   -2.0116   -5.4725   -1.3551 H   0  0  0  0  0  0  0  0  0  0  0  0
   -0.8063   -4.4147   -0.6075 H   0  0  0  0  0  0  0  0  0  0  0  0
   -1.2722    1.7017   -1.7898 H   0  0  0  0  0  0  0  0  0  0  0  0
   -1.6035   -0.4894    3.2251 H   0  0  0  0  0  0  0  0  0  0  0  0
   -1.1241    3.8548   -1.7693 H   0  0  0  0  0  0  0  0  0  0  0  0
    0.0286    3.4883    2.4020 H   0  0  0  0  0  0  0  0  0  0  0  0
   -1.1958   -2.4023    4.7380 H   0  0  0  0  0  0  0  0  0  0  0  0
    1.8896   -3.8467    2.1185 H   0  0  0  0  0  0  0  0  0  0  0  0
   -0.9595    6.2805   -1.5865 H   0  0  0  0  0  0  0  0  0  0  0  0
    0.1879    5.9324    2.5519 H   0  0  0  0  0  0  0  0  0  0  0  0
    0.5366   -4.0895    4.1828 H   0  0  0  0  0  0  0  0  0  0  0  0
    3.7282   -1.7329    0.5172 H   0  0  0  0  0  0  0  0  0  0  0  0
    2.8514   -0.6448    1.5995 H   0  0  0  0  0  0  0  0  0  0  0  0
    2.9005    1.6265    0.9118 H   0  0  0  0  0  0  0  0  0  0  0  0
    2.8679   -1.4504   -2.1133 H   0  0  0  0  0  0  0  0  0  0  0  0
    2.9408    3.3533   -0.8480 H   0  0  0  0  0  0  0  0  0  0  0  0
    2.9244    2.7019   -3.2403 H   0  0  0  0  0  0  0  0  0  0  0  0
  1  2  1  0
  2  3  1  0
  1  4  1  0
  5  1  1  0
  4  6  2  0
  4  7  1  0
  3  8  1  0
  8  9  2  0
 10  8  1  0
  9 11  1  0
 12 10  2  0
 10 13  1  0
 11 14  1  0
 11 12  1  0
 13 15  2  0
 16 13  1  0
 14 17  2  0
 18 14  1  0
 15 19  1  0
 20 16  2  0
 16 21  1  0
 17 22  1  0
 23 18  2  0
 19 24  2  0
 24 20  1  0
 21 25  1  0
 22 26  2  0
 26 23  1  0
 25 27  1  0
 26 28  1  0
 27 29  2  0
 30 27  1  0
 29 31  1  0
 32 30  2  0
 31 33  2  0
 33 32  1  0
 32 34  1  0
  1 35  1  6
  2 36  1  0
  2 37  1  0
  3 38  1  0
  3 39  1  0
  5 40  1  0
  5 41  1  0
  5 42  1  0
  9 43  1  0
 15 44  1  0
 17 45  1  0
 18 46  1  0
 19 47  1  0
 20 48  1  0
 22 49  1  0
 23 50  1  0
 24 51  1  0
 25 52  1  0
 25 53  1  0
 29 54  1  0
 30 55  1  0
 31 56  1  0
 33 57  1  0
M  CHG  2   2   1   7  -1
M  END
>  <SMILES_raw>  (115) 
C[C@@H](C(O)=O)NCC1=CN(C2=CC=C(Br)C=C2)N=C1C3=CC=CC=C3OCC4=CC=CC(Cl)=C4

>  <Protonation_Method>  (115) 
MolScrub

>  <Target_pH>  (115) 
7.4

$$$$
((3-(2-(benzyloxy)phenyl)-1-(3-nitrophenyl)-1H-pyrazol-4-yl)methyl)-L-alanine
     RDKit          3D

 59 62  0  0  0  0  0  0  0  0999 V2000
    1.3222    4.3867   -0.8336 C   0  0  2  0  0  0  0  0  0  0  0  0
    1.6111    2.8850   -0.7987 N   0  0  0  0  0  0  0  0  0  0  0  0
    0.6053    2.0316   -0.1552 C   0  0  0  0  0  0  0  0  0  0  0  0
    1.6223    4.9183   -2.2680 C   0  0  0  0  0  0  0  0  0  0  0  0
    2.1590    5.0629    0.2350 C   0  0  0  0  0  0  0  0  0  0  0  0
    1.6770    6.1523   -2.4292 O   0  0  0  0  0  0  0  0  0  0  0  0
    1.7876    3.9296   -3.0575 O   0  0  0  0  0  0  0  0  0  0  0  0
    1.0288    0.6082   -0.1704 C   0  0  0  0  0  0  0  0  0  0  0  0
    2.0671    0.0237    0.5307 C   0  0  0  0  0  0  0  0  0  0  0  0
    0.4622   -0.4638   -0.9127 C   0  0  0  0  0  0  0  0  0  0  0  0
    2.0950   -1.3117    0.1924 N   0  0  0  0  0  0  0  0  0  0  0  0
    1.1256   -1.6050   -0.7021 N   0  0  0  0  0  0  0  0  0  0  0  0
   -0.6814   -0.4193   -1.8154 C   0  0  0  0  0  0  0  0  0  0  0  0
    2.9815   -2.3212    0.6643 C   0  0  0  0  0  0  0  0  0  0  0  0
   -0.5134   -0.7441   -3.1653 C   0  0  0  0  0  0  0  0  0  0  0  0
   -1.9526   -0.0356   -1.3630 C   0  0  0  0  0  0  0  0  0  0  0  0
    2.8554   -3.6328    0.1750 C   0  0  0  0  0  0  0  0  0  0  0  0
    3.9760   -2.0335    1.6096 C   0  0  0  0  0  0  0  0  0  0  0  0
   -1.5872   -0.6427   -4.0545 C   0  0  0  0  0  0  0  0  0  0  0  0
   -3.0207    0.0896   -2.2527 C   0  0  0  0  0  0  0  0  0  0  0  0
   -2.1693    0.2693   -0.0421 O   0  0  0  0  0  0  0  0  0  0  0  0
    3.7117   -4.6455    0.6172 C   0  0  0  0  0  0  0  0  0  0  0  0
    4.8313   -3.0600    2.0483 C   0  0  0  0  0  0  0  0  0  0  0  0
   -2.8346   -0.2143   -3.6008 C   0  0  0  0  0  0  0  0  0  0  0  0
   -2.5475   -0.9101    0.6870 C   0  0  0  0  0  0  0  0  0  0  0  0
    4.7050   -4.3642    1.5540 C   0  0  0  0  0  0  0  0  0  0  0  0
    5.8663   -2.7595    3.0463 N   0  0  0  0  0  0  0  0  0  0  0  0
   -3.9599   -0.7567    1.1912 C   0  0  0  0  0  0  0  0  0  0  0  0
    6.6305   -3.6745    3.3816 O   0  0  0  0  0  0  0  0  0  0  0  0
    5.9091   -1.6043    3.4944 O   0  0  0  0  0  0  0  0  0  0  0  0
   -4.2486    0.1353    2.2341 C   0  0  0  0  0  0  0  0  0  0  0  0
   -5.0076   -1.4882    0.6125 C   0  0  0  0  0  0  0  0  0  0  0  0
   -5.5562    0.2796    2.6994 C   0  0  0  0  0  0  0  0  0  0  0  0
   -6.3145   -1.3414    1.0784 C   0  0  0  0  0  0  0  0  0  0  0  0
   -6.5882   -0.4591    2.1222 C   0  0  0  0  0  0  0  0  0  0  0  0
    0.2499    4.5141   -0.6408 H   0  0  0  0  0  0  0  0  0  0  0  0
    2.5786    2.7065   -0.5216 H   0  0  0  0  0  0  0  0  0  0  0  0
    1.6302    2.6946   -1.8357 H   0  0  0  0  0  0  0  0  0  0  0  0
   -0.3393    2.2001   -0.6782 H   0  0  0  0  0  0  0  0  0  0  0  0
    0.4991    2.3793    0.8782 H   0  0  0  0  0  0  0  0  0  0  0  0
    1.9175    6.1285    0.3024 H   0  0  0  0  0  0  0  0  0  0  0  0
    1.9812    4.6187    1.2188 H   0  0  0  0  0  0  0  0  0  0  0  0
    3.2281    4.9823    0.0094 H   0  0  0  0  0  0  0  0  0  0  0  0
    2.7702    0.4516    1.2287 H   0  0  0  0  0  0  0  0  0  0  0  0
    0.4586   -1.0626   -3.5365 H   0  0  0  0  0  0  0  0  0  0  0  0
    2.0894   -3.8851   -0.5585 H   0  0  0  0  0  0  0  0  0  0  0  0
    4.0948   -1.0370    2.0203 H   0  0  0  0  0  0  0  0  0  0  0  0
   -1.4452   -0.8820   -5.1061 H   0  0  0  0  0  0  0  0  0  0  0  0
   -3.9920    0.4243   -1.8982 H   0  0  0  0  0  0  0  0  0  0  0  0
    3.6027   -5.6543    0.2246 H   0  0  0  0  0  0  0  0  0  0  0  0
   -3.6640   -0.1204   -4.2982 H   0  0  0  0  0  0  0  0  0  0  0  0
   -1.8697   -1.0004    1.5432 H   0  0  0  0  0  0  0  0  0  0  0  0
   -2.4350   -1.8363    0.1066 H   0  0  0  0  0  0  0  0  0  0  0  0
    5.3622   -5.1654    1.8869 H   0  0  0  0  0  0  0  0  0  0  0  0
   -3.4539    0.7236    2.6877 H   0  0  0  0  0  0  0  0  0  0  0  0
   -4.8122   -2.1775   -0.2068 H   0  0  0  0  0  0  0  0  0  0  0  0
   -5.7713    0.9710    3.5109 H   0  0  0  0  0  0  0  0  0  0  0  0
   -7.1215   -1.9133    0.6258 H   0  0  0  0  0  0  0  0  0  0  0  0
   -7.6065   -0.3451    2.4848 H   0  0  0  0  0  0  0  0  0  0  0  0
  1  2  1  0
  2  3  1  0
  1  4  1  0
  5  1  1  0
  4  6  2  0
  4  7  1  0
  3  8  1  0
  8  9  2  0
 10  8  1  0
  9 11  1  0
 12 10  2  0
 10 13  1  0
 11 14  1  0
 11 12  1  0
 13 15  2  0
 16 13  1  0
 14 17  2  0
 18 14  1  0
 15 19  1  0
 20 16  2  0
 16 21  1  0
 17 22  1  0
 23 18  2  0
 19 24  2  0
 24 20  1  0
 21 25  1  0
 22 26  2  0
 26 23  1  0
 23 27  1  0
 25 28  1  0
 27 29  1  0
 27 30  2  0
 28 31  2  0
 32 28  1  0
 31 33  1  0
 34 32  2  0
 33 35  2  0
 35 34  1  0
  1 36  1  1
  2 37  1  0
  2 38  1  0
  3 39  1  0
  3 40  1  0
  5 41  1  0
  5 42  1  0
  5 43  1  0
  9 44  1  0
 15 45  1  0
 17 46  1  0
 18 47  1  0
 19 48  1  0
 20 49  1  0
 22 50  1  0
 24 51  1  0
 25 52  1  0
 25 53  1  0
 26 54  1  0
 31 55  1  0
 32 56  1  0
 33 57  1  0
 34 58  1  0
 35 59  1  0
M  CHG  4   2   1   7  -1  27   1  29  -1
M  END
>  <SMILES_raw>  (116) 
C[C@@H](C(O)=O)NCC1=CN(C2=CC=CC([N+]([O-])=O)=C2)N=C1C3=CC=CC=C3OCC4=CC=CC=C4

>  <Protonation_Method>  (116) 
MolScrub

>  <Target_pH>  (116) 
7.4

$$$$
N-((1-(4-bromophenyl)-3-(2-((3-chlorobenzyl)oxy)phenyl)-1H-pyrazol-4-yl)methyl)-ʟ-leucin
     RDKit          3D

 66 69  0  0  0  0  0  0  0  0999 V2000
   -3.0621    1.8030   -0.0021 C   0  0  2  0  0  0  0  0  0  0  0  0
   -2.2015    0.6171   -0.4880 N   0  0  0  0  0  0  0  0  0  0  0  0
   -0.9088    0.4930    0.2237 C   0  0  0  0  0  0  0  0  0  0  0  0
   -3.8027    1.3116    1.2870 C   0  0  0  0  0  0  0  0  0  0  0  0
   -4.0154    2.1463   -1.1540 C   0  0  0  0  0  0  0  0  0  0  0  0
   -3.9962    0.0512    1.2171 O   0  0  0  0  0  0  0  0  0  0  0  0
   -3.9354    2.1344    2.2183 O   0  0  0  0  0  0  0  0  0  0  0  0
   -4.7145    3.5165   -1.0211 C   0  0  0  0  0  0  0  0  0  0  0  0
   -5.0917    4.0385   -2.4133 C   0  0  0  0  0  0  0  0  0  0  0  0
   -5.9786    3.4556   -0.1624 C   0  0  0  0  0  0  0  0  0  0  0  0
   -0.3954   -0.8967    0.1449 C   0  0  0  0  0  0  0  0  0  0  0  0
   -0.9101   -2.0011    0.7969 C   0  0  0  0  0  0  0  0  0  0  0  0
    0.7055   -1.4066   -0.5939 C   0  0  0  0  0  0  0  0  0  0  0  0
   -0.1302   -3.0827    0.4615 N   0  0  0  0  0  0  0  0  0  0  0  0
    0.8365   -2.7274   -0.4209 N   0  0  0  0  0  0  0  0  0  0  0  0
    1.6175   -0.6792   -1.4704 C   0  0  0  0  0  0  0  0  0  0  0  0
   -0.2412   -4.4231    0.9275 C   0  0  0  0  0  0  0  0  0  0  0  0
    1.7512   -1.0778   -2.8081 C   0  0  0  0  0  0  0  0  0  0  0  0
    2.3541    0.4258   -1.0164 C   0  0  0  0  0  0  0  0  0  0  0  0
   -1.2451   -4.7968    1.8321 C   0  0  0  0  0  0  0  0  0  0  0  0
    0.6776   -5.3860    0.4795 C   0  0  0  0  0  0  0  0  0  0  0  0
    2.5673   -0.3545   -3.6827 C   0  0  0  0  0  0  0  0  0  0  0  0
    3.1542    1.1608   -1.8935 C   0  0  0  0  0  0  0  0  0  0  0  0
    2.2713    0.8594    0.2826 O   0  0  0  0  0  0  0  0  0  0  0  0
   -1.3221   -6.1175    2.2866 C   0  0  0  0  0  0  0  0  0  0  0  0
    0.6007   -6.7026    0.9436 C   0  0  0  0  0  0  0  0  0  0  0  0
    3.2573    0.7694   -3.2283 C   0  0  0  0  0  0  0  0  0  0  0  0
    3.1653    0.1161    1.1282 C   0  0  0  0  0  0  0  0  0  0  0  0
   -0.3961   -7.0609    1.8465 C   0  0  0  0  0  0  0  0  0  0  0  0
    4.2989    1.0130    1.5588 C   0  0  0  0  0  0  0  0  0  0  0  0
   -0.5009   -8.8412    2.4761 Br  0  0  0  0  0  0  0  0  0  0  0  0
    5.5963    0.8121    1.0644 C   0  0  0  0  0  0  0  0  0  0  0  0
    4.0655    2.0767    2.4433 C   0  0  0  0  0  0  0  0  0  0  0  0
    6.6421    1.6492    1.4565 C   0  0  0  0  0  0  0  0  0  0  0  0
    5.1144    2.9095    2.8316 C   0  0  0  0  0  0  0  0  0  0  0  0
    6.4016    2.6991    2.3429 C   0  0  0  0  0  0  0  0  0  0  0  0
    4.8161    4.2036    3.9256 Cl  0  0  0  0  0  0  0  0  0  0  0  0
   -2.3715    2.6285    0.2060 H   0  0  0  0  0  0  0  0  0  0  0  0
   -2.1275    0.5163   -1.4985 H   0  0  0  0  0  0  0  0  0  0  0  0
   -2.7988   -0.1690   -0.1357 H   0  0  0  0  0  0  0  0  0  0  0  0
   -1.0624    0.7707    1.2735 H   0  0  0  0  0  0  0  0  0  0  0  0
   -0.2429    1.2289   -0.2325 H   0  0  0  0  0  0  0  0  0  0  0  0
   -3.4319    2.1528   -2.0842 H   0  0  0  0  0  0  0  0  0  0  0  0
   -4.7705    1.3594   -1.2696 H   0  0  0  0  0  0  0  0  0  0  0  0
   -4.0202    4.2397   -0.5757 H   0  0  0  0  0  0  0  0  0  0  0  0
   -5.5940    5.0104   -2.3471 H   0  0  0  0  0  0  0  0  0  0  0  0
   -4.1980    4.1707   -3.0347 H   0  0  0  0  0  0  0  0  0  0  0  0
   -5.7627    3.3420   -2.9295 H   0  0  0  0  0  0  0  0  0  0  0  0
   -5.7537    3.2265    0.8794 H   0  0  0  0  0  0  0  0  0  0  0  0
   -6.6758    2.6983   -0.5346 H   0  0  0  0  0  0  0  0  0  0  0  0
   -6.4997    4.4197   -0.1701 H   0  0  0  0  0  0  0  0  0  0  0  0
   -1.7511   -2.0805    1.4741 H   0  0  0  0  0  0  0  0  0  0  0  0
    1.2188   -1.9527   -3.1761 H   0  0  0  0  0  0  0  0  0  0  0  0
   -1.9895   -4.0959    2.1991 H   0  0  0  0  0  0  0  0  0  0  0  0
    1.4646   -5.1282   -0.2270 H   0  0  0  0  0  0  0  0  0  0  0  0
    2.6549   -0.6619   -4.7239 H   0  0  0  0  0  0  0  0  0  0  0  0
    3.6925    2.0364   -1.5394 H   0  0  0  0  0  0  0  0  0  0  0  0
   -2.1127   -6.4005    2.9797 H   0  0  0  0  0  0  0  0  0  0  0  0
    1.3274   -7.4357    0.6013 H   0  0  0  0  0  0  0  0  0  0  0  0
    3.8834    1.3371   -3.9133 H   0  0  0  0  0  0  0  0  0  0  0  0
    2.6005   -0.2004    2.0130 H   0  0  0  0  0  0  0  0  0  0  0  0
    3.5475   -0.8005    0.6556 H   0  0  0  0  0  0  0  0  0  0  0  0
    5.8009   -0.0007    0.3680 H   0  0  0  0  0  0  0  0  0  0  0  0
    3.0631    2.2512    2.8298 H   0  0  0  0  0  0  0  0  0  0  0  0
    7.6453    1.4826    1.0726 H   0  0  0  0  0  0  0  0  0  0  0  0
    7.2187    3.3472    2.6481 H   0  0  0  0  0  0  0  0  0  0  0  0
  1  2  1  0
  2  3  1  0
  1  4  1  0
  5  1  1  0
  4  6  2  0
  4  7  1  0
  8  5  1  0
  9  8  1  0
  8 10  1  0
  3 11  1  0
 11 12  2  0
 13 11  1  0
 12 14  1  0
 15 13  2  0
 13 16  1  0
 14 17  1  0
 14 15  1  0
 16 18  2  0
 19 16  1  0
 17 20  2  0
 21 17  1  0
 18 22  1  0
 23 19  2  0
 19 24  1  0
 20 25  1  0
 26 21  2  0
 22 27  2  0
 27 23  1  0
 24 28  1  0
 25 29  2  0
 29 26  1  0
 28 30  1  0
 29 31  1  0
 30 32  2  0
 33 30  1  0
 32 34  1  0
 35 33  2  0
 34 36  2  0
 36 35  1  0
 35 37  1  0
  1 38  1  1
  2 39  1  0
  2 40  1  0
  3 41  1  0
  3 42  1  0
  5 43  1  0
  5 44  1  0
  8 45  1  0
  9 46  1  0
  9 47  1  0
  9 48  1  0
 10 49  1  0
 10 50  1  0
 10 51  1  0
 12 52  1  0
 18 53  1  0
 20 54  1  0
 21 55  1  0
 22 56  1  0
 23 57  1  0
 25 58  1  0
 26 59  1  0
 27 60  1  0
 28 61  1  0
 28 62  1  0
 32 63  1  0
 33 64  1  0
 34 65  1  0
 36 66  1  0
M  CHG  2   2   1   7  -1
M  END
>  <SMILES_raw>  (117) 
CC(C)C[C@@H](C(O)=O)NCC1=CN(C2=CC=C(Br)C=C2)N=C1C3=CC=CC=C3OCC4=CC=CC(Cl)=C4

>  <Protonation_Method>  (117) 
MolScrub

>  <Target_pH>  (117) 
7.4

$$$$
N-((3-(2-((2-chlorobenzyl)oxy)phenyl)-1-(3-nitrophenyl)-1H-pyrazol-4-yl)methyl)-ʟ-alanin
     RDKit          3D

 59 62  0  0  0  0  0  0  0  0999 V2000
   -3.9551    3.9485   -0.2703 C   0  0  2  0  0  0  0  0  0  0  0  0
   -3.5544    2.4707   -0.1977 N   0  0  0  0  0  0  0  0  0  0  0  0
   -2.2140    2.1676    0.3564 C   0  0  0  0  0  0  0  0  0  0  0  0
   -3.2907    4.5946   -1.5248 C   0  0  0  0  0  0  0  0  0  0  0  0
   -3.7167    4.6444    1.0541 C   0  0  0  0  0  0  0  0  0  0  0  0
   -2.9855    3.6773   -2.3574 O   0  0  0  0  0  0  0  0  0  0  0  0
   -3.1121    5.8292   -1.5214 O   0  0  0  0  0  0  0  0  0  0  0  0
   -1.8168    0.7684    0.0535 C   0  0  0  0  0  0  0  0  0  0  0  0
   -2.4618   -0.4034    0.4063 C   0  0  0  0  0  0  0  0  0  0  0  0
   -0.6582    0.3342   -0.6475 C   0  0  0  0  0  0  0  0  0  0  0  0
   -1.7034   -1.4499   -0.0740 N   0  0  0  0  0  0  0  0  0  0  0  0
   -0.6104   -1.0004   -0.7247 N   0  0  0  0  0  0  0  0  0  0  0  0
    0.3898    1.1609   -1.2326 C   0  0  0  0  0  0  0  0  0  0  0  0
   -1.9455   -2.8478    0.0526 C   0  0  0  0  0  0  0  0  0  0  0  0
    0.0937    1.9785   -2.3321 C   0  0  0  0  0  0  0  0  0  0  0  0
    1.6853    1.1889   -0.6953 C   0  0  0  0  0  0  0  0  0  0  0  0
   -3.0814   -3.3332    0.7183 C   0  0  0  0  0  0  0  0  0  0  0  0
   -1.0244   -3.7562   -0.4976 C   0  0  0  0  0  0  0  0  0  0  0  0
    1.0715    2.8191   -2.8699 C   0  0  0  0  0  0  0  0  0  0  0  0
    2.6575    2.0413   -1.2236 C   0  0  0  0  0  0  0  0  0  0  0  0
    2.0095    0.4523    0.4152 O   0  0  0  0  0  0  0  0  0  0  0  0
   -3.2968   -4.7110    0.8334 C   0  0  0  0  0  0  0  0  0  0  0  0
   -1.2485   -5.1343   -0.3721 C   0  0  0  0  0  0  0  0  0  0  0  0
    2.3508    2.8511   -2.3163 C   0  0  0  0  0  0  0  0  0  0  0  0
    2.5665   -0.8182    0.0358 C   0  0  0  0  0  0  0  0  0  0  0  0
   -2.3839   -5.6152    0.2910 C   0  0  0  0  0  0  0  0  0  0  0  0
   -0.2813   -6.0859   -0.9347 N   0  0  0  0  0  0  0  0  0  0  0  0
    3.9971   -0.8952    0.5136 C   0  0  0  0  0  0  0  0  0  0  0  0
    0.7567   -5.6284   -1.4321 O   0  0  0  0  0  0  0  0  0  0  0  0
   -0.5598   -7.2924   -0.8722 O   0  0  0  0  0  0  0  0  0  0  0  0
    4.2410   -0.8655    1.9000 C   0  0  0  0  0  0  0  0  0  0  0  0
    5.0966   -0.9838   -0.3529 C   0  0  0  0  0  0  0  0  0  0  0  0
    5.5405   -0.9314    2.4054 C   0  0  0  0  0  0  0  0  0  0  0  0
    6.3986   -1.0510    0.1572 C   0  0  0  0  0  0  0  0  0  0  0  0
    4.9206   -1.0081   -2.0705 Cl  0  0  0  0  0  0  0  0  0  0  0  0
    6.6202   -1.0263    1.5335 C   0  0  0  0  0  0  0  0  0  0  0  0
   -5.0327    3.9229   -0.4735 H   0  0  0  0  0  0  0  0  0  0  0  0
   -4.3016    1.8669    0.1388 H   0  0  0  0  0  0  0  0  0  0  0  0
   -3.4422    2.2968   -1.2252 H   0  0  0  0  0  0  0  0  0  0  0  0
   -1.5062    2.8974   -0.0467 H   0  0  0  0  0  0  0  0  0  0  0  0
   -2.2779    2.3044    1.4410 H   0  0  0  0  0  0  0  0  0  0  0  0
   -4.1854    5.6344    1.0539 H   0  0  0  0  0  0  0  0  0  0  0  0
   -4.1427    4.0748    1.8865 H   0  0  0  0  0  0  0  0  0  0  0  0
   -2.6496    4.7968    1.2445 H   0  0  0  0  0  0  0  0  0  0  0  0
   -3.3703   -0.5693    0.9637 H   0  0  0  0  0  0  0  0  0  0  0  0
   -0.8992    1.9836   -2.7797 H   0  0  0  0  0  0  0  0  0  0  0  0
   -3.8221   -2.6727    1.1590 H   0  0  0  0  0  0  0  0  0  0  0  0
   -0.1392   -3.3933   -1.0198 H   0  0  0  0  0  0  0  0  0  0  0  0
    0.8254    3.4581   -3.7157 H   0  0  0  0  0  0  0  0  0  0  0  0
    3.6499    2.0788   -0.7835 H   0  0  0  0  0  0  0  0  0  0  0  0
   -4.1805   -5.0816    1.3497 H   0  0  0  0  0  0  0  0  0  0  0  0
    3.1058    3.5132   -2.7325 H   0  0  0  0  0  0  0  0  0  0  0  0
    2.4555   -1.0350   -1.0327 H   0  0  0  0  0  0  0  0  0  0  0  0
    1.9904   -1.5940    0.5561 H   0  0  0  0  0  0  0  0  0  0  0  0
   -2.5694   -6.6830    0.3938 H   0  0  0  0  0  0  0  0  0  0  0  0
    3.4064   -0.7836    2.5946 H   0  0  0  0  0  0  0  0  0  0  0  0
    5.7080   -0.9058    3.4791 H   0  0  0  0  0  0  0  0  0  0  0  0
    7.2485   -1.1213   -0.5174 H   0  0  0  0  0  0  0  0  0  0  0  0
    7.6338   -1.0782    1.9226 H   0  0  0  0  0  0  0  0  0  0  0  0
  1  2  1  0
  2  3  1  0
  1  4  1  0
  5  1  1  0
  4  6  2  0
  4  7  1  0
  3  8  1  0
  8  9  2  0
 10  8  1  0
  9 11  1  0
 12 10  2  0
 10 13  1  0
 11 14  1  0
 11 12  1  0
 13 15  2  0
 16 13  1  0
 14 17  2  0
 18 14  1  0
 15 19  1  0
 20 16  2  0
 16 21  1  0
 17 22  1  0
 23 18  2  0
 19 24  2  0
 24 20  1  0
 21 25  1  0
 22 26  2  0
 26 23  1  0
 23 27  1  0
 25 28  1  0
 27 29  1  0
 27 30  2  0
 28 31  2  0
 32 28  1  0
 31 33  1  0
 34 32  2  0
 32 35  1  0
 33 36  2  0
 36 34  1  0
  1 37  1  6
  2 38  1  0
  2 39  1  0
  3 40  1  0
  3 41  1  0
  5 42  1  0
  5 43  1  0
  5 44  1  0
  9 45  1  0
 15 46  1  0
 17 47  1  0
 18 48  1  0
 19 49  1  0
 20 50  1  0
 22 51  1  0
 24 52  1  0
 25 53  1  0
 25 54  1  0
 26 55  1  0
 31 56  1  0
 33 57  1  0
 34 58  1  0
 36 59  1  0
M  CHG  4   2   1   7  -1  27   1  29  -1
M  END
>  <SMILES_raw>  (118) 
C[C@@H](C(O)=O)NCC1=CN(C2=CC=CC([N+]([O-])=O)=C2)N=C1C3=CC=CC=C3OCC4=CC=CC=C4Cl

>  <Protonation_Method>  (118) 
MolScrub

>  <Target_pH>  (118) 
7.4

$$$$
N-((3-(4-(benzyloxy)phenyl)-1-(3-nitrophenyl)-1H-pyrazol-4-yl)methyl)-L-alanin
     RDKit          3D

 59 62  0  0  0  0  0  0  0  0999 V2000
   -1.6254    3.9295   -0.3889 C   0  0  2  0  0  0  0  0  0  0  0  0
   -1.7024    2.3993   -0.4677 N   0  0  0  0  0  0  0  0  0  0  0  0
   -2.4834    1.7360    0.6082 C   0  0  0  0  0  0  0  0  0  0  0  0
   -0.8511    4.3943    0.8823 C   0  0  0  0  0  0  0  0  0  0  0  0
   -3.0032    4.5338   -0.5875 C   0  0  0  0  0  0  0  0  0  0  0  0
   -1.1687    5.4970    1.3772 O   0  0  0  0  0  0  0  0  0  0  0  0
   -0.0339    3.4972    1.2615 O   0  0  0  0  0  0  0  0  0  0  0  0
   -2.6128    0.2675    0.3959 C   0  0  0  0  0  0  0  0  0  0  0  0
   -3.7925   -0.4502    0.3090 C   0  0  0  0  0  0  0  0  0  0  0  0
   -1.5936   -0.7156    0.2248 C   0  0  0  0  0  0  0  0  0  0  0  0
   -3.4635   -1.7684    0.0933 N   0  0  0  0  0  0  0  0  0  0  0  0
   -2.1275   -1.9204   -0.0089 N   0  0  0  0  0  0  0  0  0  0  0  0
   -0.1423   -0.5379    0.2033 C   0  0  0  0  0  0  0  0  0  0  0  0
   -4.3350   -2.8860   -0.0448 C   0  0  0  0  0  0  0  0  0  0  0  0
    0.6193   -1.1428   -0.8039 C   0  0  0  0  0  0  0  0  0  0  0  0
    0.5093    0.2532    1.1549 C   0  0  0  0  0  0  0  0  0  0  0  0
   -5.7258   -2.7425    0.0735 C   0  0  0  0  0  0  0  0  0  0  0  0
   -3.7889   -4.1559   -0.3007 C   0  0  0  0  0  0  0  0  0  0  0  0
    1.9976   -0.9223   -0.8776 C   0  0  0  0  0  0  0  0  0  0  0  0
    1.8885    0.4834    1.0707 C   0  0  0  0  0  0  0  0  0  0  0  0
   -6.5641   -3.8539   -0.0645 C   0  0  0  0  0  0  0  0  0  0  0  0
   -4.6390   -5.2618   -0.4408 C   0  0  0  0  0  0  0  0  0  0  0  0
    2.6370   -0.0959    0.0481 C   0  0  0  0  0  0  0  0  0  0  0  0
   -6.0264   -5.1148   -0.3224 C   0  0  0  0  0  0  0  0  0  0  0  0
   -4.0723   -6.5891   -0.7160 N   0  0  0  0  0  0  0  0  0  0  0  0
    3.9792    0.0581   -0.1549 O   0  0  0  0  0  0  0  0  0  0  0  0
   -4.8607   -7.5400   -0.8198 O   0  0  0  0  0  0  0  0  0  0  0  0
   -2.8426   -6.6801   -0.8324 O   0  0  0  0  0  0  0  0  0  0  0  0
    4.6603    0.9858    0.6912 C   0  0  0  0  0  0  0  0  0  0  0  0
    6.1103    1.0487    0.2720 C   0  0  0  0  0  0  0  0  0  0  0  0
    6.8951   -0.1143    0.2545 C   0  0  0  0  0  0  0  0  0  0  0  0
    6.7021    2.2699   -0.0802 C   0  0  0  0  0  0  0  0  0  0  0  0
    8.2404   -0.0577   -0.1131 C   0  0  0  0  0  0  0  0  0  0  0  0
    8.0482    2.3246   -0.4480 C   0  0  0  0  0  0  0  0  0  0  0  0
    8.8164    1.1619   -0.4641 C   0  0  0  0  0  0  0  0  0  0  0  0
   -0.9978    4.2040   -1.2459 H   0  0  0  0  0  0  0  0  0  0  0  0
   -1.9226    2.0624   -1.4050 H   0  0  0  0  0  0  0  0  0  0  0  0
   -0.7159    2.1576   -0.2537 H   0  0  0  0  0  0  0  0  0  0  0  0
   -2.0189    1.9495    1.5745 H   0  0  0  0  0  0  0  0  0  0  0  0
   -3.4816    2.1852    0.6041 H   0  0  0  0  0  0  0  0  0  0  0  0
   -2.9218    5.6086   -0.7838 H   0  0  0  0  0  0  0  0  0  0  0  0
   -3.5214    4.0791   -1.4382 H   0  0  0  0  0  0  0  0  0  0  0  0
   -3.6291    4.4211    0.3036 H   0  0  0  0  0  0  0  0  0  0  0  0
   -4.8187   -0.1230    0.3869 H   0  0  0  0  0  0  0  0  0  0  0  0
    0.1466   -1.7880   -1.5420 H   0  0  0  0  0  0  0  0  0  0  0  0
   -0.0308    0.7172    1.9778 H   0  0  0  0  0  0  0  0  0  0  0  0
   -6.1947   -1.7844    0.2784 H   0  0  0  0  0  0  0  0  0  0  0  0
   -2.7096   -4.2828   -0.3881 H   0  0  0  0  0  0  0  0  0  0  0  0
    2.5777   -1.3938   -1.6679 H   0  0  0  0  0  0  0  0  0  0  0  0
    2.3356    1.1301    1.8207 H   0  0  0  0  0  0  0  0  0  0  0  0
   -7.6421   -3.7365    0.0311 H   0  0  0  0  0  0  0  0  0  0  0  0
   -6.6966   -5.9662   -0.4263 H   0  0  0  0  0  0  0  0  0  0  0  0
    4.2032    1.9787    0.5992 H   0  0  0  0  0  0  0  0  0  0  0  0
    4.6183    0.6580    1.7374 H   0  0  0  0  0  0  0  0  0  0  0  0
    6.4542   -1.0722    0.5236 H   0  0  0  0  0  0  0  0  0  0  0  0
    6.1188    3.1881   -0.0725 H   0  0  0  0  0  0  0  0  0  0  0  0
    8.8374   -0.9656   -0.1261 H   0  0  0  0  0  0  0  0  0  0  0  0
    8.4973    3.2761   -0.7214 H   0  0  0  0  0  0  0  0  0  0  0  0
    9.8638    1.2061   -0.7506 H   0  0  0  0  0  0  0  0  0  0  0  0
  1  2  1  0
  2  3  1  0
  1  4  1  0
  5  1  1  0
  4  6  2  0
  4  7  1  0
  3  8  1  0
  8  9  2  0
 10  8  1  0
  9 11  1  0
 12 10  2  0
 10 13  1  0
 11 14  1  0
 11 12  1  0
 13 15  2  0
 16 13  1  0
 14 17  2  0
 18 14  1  0
 15 19  1  0
 20 16  2  0
 17 21  1  0
 22 18  2  0
 19 23  2  0
 23 20  1  0
 21 24  2  0
 24 22  1  0
 22 25  1  0
 23 26  1  0
 25 27  1  0
 25 28  2  0
 26 29  1  0
 29 30  1  0
 30 31  2  0
 32 30  1  0
 31 33  1  0
 34 32  2  0
 33 35  2  0
 35 34  1  0
  1 36  1  6
  2 37  1  0
  2 38  1  0
  3 39  1  0
  3 40  1  0
  5 41  1  0
  5 42  1  0
  5 43  1  0
  9 44  1  0
 15 45  1  0
 16 46  1  0
 17 47  1  0
 18 48  1  0
 19 49  1  0
 20 50  1  0
 21 51  1  0
 24 52  1  0
 29 53  1  0
 29 54  1  0
 31 55  1  0
 32 56  1  0
 33 57  1  0
 34 58  1  0
 35 59  1  0
M  CHG  4   2   1   7  -1  25   1  27  -1
M  END
>  <SMILES_raw>  (119) 
C[C@@H](C(O)=O)NCC1=CN(C2=CC=CC([N+]([O-])=O)=C2)N=C1C3=CC=C(OCC4=CC=CC=C4)C=C3

>  <Protonation_Method>  (119) 
MolScrub

>  <Target_pH>  (119) 
7.4

$$$$
N-((3-(4-(benzyloxy)phenyl)-1-(3-nitrophenyl)-1H-pyrazol-4-yl)methyl)glycin
     RDKit          3D

 56 59  0  0  0  0  0  0  0  0999 V2000
   -2.4816   -4.8080    0.3609 C   0  0  0  0  0  0  0  0  0  0  0  0
   -2.4965   -3.2973    0.5511 N   0  0  0  0  0  0  0  0  0  0  0  0
   -1.9343   -2.5358   -0.5835 C   0  0  0  0  0  0  0  0  0  0  0  0
   -3.7593   -5.2484   -0.3989 C   0  0  0  0  0  0  0  0  0  0  0  0
   -3.7676   -6.4019   -0.8782 O   0  0  0  0  0  0  0  0  0  0  0  0
   -4.5930   -4.2850   -0.4319 O   0  0  0  0  0  0  0  0  0  0  0  0
   -2.2948   -1.1007   -0.4807 C   0  0  0  0  0  0  0  0  0  0  0  0
   -3.5569   -0.5529   -0.6204 C   0  0  0  0  0  0  0  0  0  0  0  0
   -1.4484    0.0187   -0.2602 C   0  0  0  0  0  0  0  0  0  0  0  0
   -3.4322    0.8108   -0.4974 N   0  0  0  0  0  0  0  0  0  0  0  0
   -2.1449    1.1602   -0.2748 N   0  0  0  0  0  0  0  0  0  0  0  0
   -0.0038    0.0407   -0.0607 C   0  0  0  0  0  0  0  0  0  0  0  0
   -4.4490    1.8033   -0.5806 C   0  0  0  0  0  0  0  0  0  0  0  0
    0.5954   -0.7134    0.9528 C   0  0  0  0  0  0  0  0  0  0  0  0
    0.8017    0.8290   -0.8917 C   0  0  0  0  0  0  0  0  0  0  0  0
   -5.7844    1.4559   -0.8379 C   0  0  0  0  0  0  0  0  0  0  0  0
   -4.1064    3.1546   -0.4018 C   0  0  0  0  0  0  0  0  0  0  0  0
    1.9842   -0.6966    1.1086 C   0  0  0  0  0  0  0  0  0  0  0  0
    2.1923    0.8432   -0.7328 C   0  0  0  0  0  0  0  0  0  0  0  0
   -6.7673    2.4484   -0.9204 C   0  0  0  0  0  0  0  0  0  0  0  0
   -5.1005    4.1394   -0.4847 C   0  0  0  0  0  0  0  0  0  0  0  0
    2.7893    0.0728    0.2644 C   0  0  0  0  0  0  0  0  0  0  0  0
   -6.4310    3.7909   -0.7460 C   0  0  0  0  0  0  0  0  0  0  0  0
   -4.7468    5.5506   -0.2889 N   0  0  0  0  0  0  0  0  0  0  0  0
    4.1272   -0.0132    0.5259 O   0  0  0  0  0  0  0  0  0  0  0  0
   -3.5970    5.8098    0.0919 O   0  0  0  0  0  0  0  0  0  0  0  0
   -5.6232    6.3994   -0.5103 O   0  0  0  0  0  0  0  0  0  0  0  0
    5.0074    0.7089   -0.3331 C   0  0  0  0  0  0  0  0  0  0  0  0
    6.4226    0.4077    0.0920 C   0  0  0  0  0  0  0  0  0  0  0  0
    7.0325    1.1528    1.1106 C   0  0  0  0  0  0  0  0  0  0  0  0
    7.1342   -0.6469   -0.4975 C   0  0  0  0  0  0  0  0  0  0  0  0
    8.3363    0.8626    1.5150 C   0  0  0  0  0  0  0  0  0  0  0  0
    8.4380   -0.9357   -0.0910 C   0  0  0  0  0  0  0  0  0  0  0  0
    9.0393   -0.1793    0.9130 C   0  0  0  0  0  0  0  0  0  0  0  0
   -2.4896   -5.2396    1.3652 H   0  0  0  0  0  0  0  0  0  0  0  0
   -1.5581   -5.0781   -0.1590 H   0  0  0  0  0  0  0  0  0  0  0  0
   -3.5301   -3.1407    0.4944 H   0  0  0  0  0  0  0  0  0  0  0  0
   -2.1859   -2.9941    1.4718 H   0  0  0  0  0  0  0  0  0  0  0  0
   -0.8530   -2.6992   -0.5740 H   0  0  0  0  0  0  0  0  0  0  0  0
   -2.3366   -2.9585   -1.5125 H   0  0  0  0  0  0  0  0  0  0  0  0
   -4.5072   -1.0315   -0.8144 H   0  0  0  0  0  0  0  0  0  0  0  0
   -0.0011   -1.2987    1.6454 H   0  0  0  0  0  0  0  0  0  0  0  0
    0.3480    1.4424   -1.6688 H   0  0  0  0  0  0  0  0  0  0  0  0
   -6.0989    0.4244   -0.9808 H   0  0  0  0  0  0  0  0  0  0  0  0
   -3.0743    3.4380   -0.1971 H   0  0  0  0  0  0  0  0  0  0  0  0
    2.4484   -1.2801    1.9013 H   0  0  0  0  0  0  0  0  0  0  0  0
    2.7726    1.4716   -1.4007 H   0  0  0  0  0  0  0  0  0  0  0  0
   -7.8004    2.1717   -1.1224 H   0  0  0  0  0  0  0  0  0  0  0  0
   -7.2124    4.5459   -0.8121 H   0  0  0  0  0  0  0  0  0  0  0  0
    4.8248    1.7884   -0.2546 H   0  0  0  0  0  0  0  0  0  0  0  0
    4.8705    0.4009   -1.3781 H   0  0  0  0  0  0  0  0  0  0  0  0
    6.4908    1.9596    1.5990 H   0  0  0  0  0  0  0  0  0  0  0  0
    6.6739   -1.2534   -1.2741 H   0  0  0  0  0  0  0  0  0  0  0  0
    8.8019    1.4472    2.3037 H   0  0  0  0  0  0  0  0  0  0  0  0
    8.9820   -1.7547   -0.5544 H   0  0  0  0  0  0  0  0  0  0  0  0
   10.0534   -0.4058    1.2313 H   0  0  0  0  0  0  0  0  0  0  0  0
  1  2  1  0
  2  3  1  0
  1  4  1  0
  4  5  2  0
  4  6  1  0
  3  7  1  0
  7  8  2  0
  9  7  1  0
  8 10  1  0
 11  9  2  0
  9 12  1  0
 10 13  1  0
 10 11  1  0
 12 14  2  0
 15 12  1  0
 13 16  2  0
 17 13  1  0
 14 18  1  0
 19 15  2  0
 16 20  1  0
 21 17  2  0
 18 22  2  0
 22 19  1  0
 20 23  2  0
 23 21  1  0
 21 24  1  0
 22 25  1  0
 24 26  1  0
 24 27  2  0
 25 28  1  0
 28 29  1  0
 29 30  2  0
 31 29  1  0
 30 32  1  0
 33 31  2  0
 32 34  2  0
 34 33  1  0
  1 35  1  0
  1 36  1  0
  2 37  1  0
  2 38  1  0
  3 39  1  0
  3 40  1  0
  8 41  1  0
 14 42  1  0
 15 43  1  0
 16 44  1  0
 17 45  1  0
 18 46  1  0
 19 47  1  0
 20 48  1  0
 23 49  1  0
 28 50  1  0
 28 51  1  0
 30 52  1  0
 31 53  1  0
 32 54  1  0
 33 55  1  0
 34 56  1  0
M  CHG  4   2   1   6  -1  24   1  26  -1
M  END
>  <SMILES_raw>  (120) 
O=C(O)CNCC1=CN(C2=CC=CC([N+]([O-])=O)=C2)N=C1C3=CC=C(OCC4=CC=CC=C4)C=C3

>  <Protonation_Method>  (120) 
MolScrub

>  <Target_pH>  (120) 
7.4

$$$$
N-((3-(4-(benzyloxy)phenyl)-1-(3-nitrophenyl)-1H-pyrazol-4-yl)methyl)-L-histidin
     RDKit          3D

 66 70  0  0  0  0  0  0  0  0999 V2000
   -3.8510   -1.6924   -0.5946 C   0  0  2  0  0  0  0  0  0  0  0  0
   -2.7051   -0.6591   -0.6329 N   0  0  0  0  0  0  0  0  0  0  0  0
   -2.5652    0.2549    0.5192 C   0  0  0  0  0  0  0  0  0  0  0  0
   -5.1901   -0.9870   -0.9810 C   0  0  0  0  0  0  0  0  0  0  0  0
   -3.9336   -2.4203    0.7457 C   0  0  0  0  0  0  0  0  0  0  0  0
   -6.2601   -1.5983   -0.7836 O   0  0  0  0  0  0  0  0  0  0  0  0
   -4.9523    0.1781   -1.4418 O   0  0  0  0  0  0  0  0  0  0  0  0
   -4.1173   -3.8890    0.5806 C   0  0  0  0  0  0  0  0  0  0  0  0
   -5.2180   -4.5869    0.1351 C   0  0  0  0  0  0  0  0  0  0  0  0
   -3.0968   -4.7570    0.8987 N   0  0  0  0  0  0  0  0  0  0  0  0
   -4.8517   -5.9021    0.1759 N   0  0  0  0  0  0  0  0  0  0  0  0
   -3.5745   -5.9575    0.6605 C   0  0  0  0  0  0  0  0  0  0  0  0
   -1.8809    1.5074    0.1134 C   0  0  0  0  0  0  0  0  0  0  0  0
   -2.4802    2.6971   -0.2555 C   0  0  0  0  0  0  0  0  0  0  0  0
   -0.4931    1.7453   -0.0654 C   0  0  0  0  0  0  0  0  0  0  0  0
   -1.4818    3.5727   -0.6073 N   0  0  0  0  0  0  0  0  0  0  0  0
   -0.2656    2.9905   -0.4954 N   0  0  0  0  0  0  0  0  0  0  0  0
    0.6098    0.8081    0.0994 C   0  0  0  0  0  0  0  0  0  0  0  0
   -1.6040    4.9197   -1.0511 C   0  0  0  0  0  0  0  0  0  0  0  0
    1.4083    0.4835   -1.0027 C   0  0  0  0  0  0  0  0  0  0  0  0
    0.8814    0.2209    1.3400 C   0  0  0  0  0  0  0  0  0  0  0  0
   -2.8623    5.5026   -1.2641 C   0  0  0  0  0  0  0  0  0  0  0  0
   -0.4413    5.6766   -1.2779 C   0  0  0  0  0  0  0  0  0  0  0  0
    2.4617   -0.4224   -0.8637 C   0  0  0  0  0  0  0  0  0  0  0  0
    1.9438   -0.6812    1.4783 C   0  0  0  0  0  0  0  0  0  0  0  0
   -2.9619    6.8279   -1.6980 C   0  0  0  0  0  0  0  0  0  0  0  0
   -0.5545    7.0073   -1.7028 C   0  0  0  0  0  0  0  0  0  0  0  0
    2.7458   -0.9923    0.3786 C   0  0  0  0  0  0  0  0  0  0  0  0
   -1.8118    7.5864   -1.9146 C   0  0  0  0  0  0  0  0  0  0  0  0
    0.6573    7.8101   -1.9218 N   0  0  0  0  0  0  0  0  0  0  0  0
    3.8131   -1.8475    0.3966 O   0  0  0  0  0  0  0  0  0  0  0  0
    1.7521    7.2317   -1.8783 O   0  0  0  0  0  0  0  0  0  0  0  0
    0.5125    9.0222   -2.1354 O   0  0  0  0  0  0  0  0  0  0  0  0
    4.4861   -1.9739    1.6511 C   0  0  0  0  0  0  0  0  0  0  0  0
    5.8141   -2.6531    1.4175 C   0  0  0  0  0  0  0  0  0  0  0  0
    5.8628   -3.9903    0.9966 C   0  0  0  0  0  0  0  0  0  0  0  0
    7.0169   -1.9611    1.6165 C   0  0  0  0  0  0  0  0  0  0  0  0
    7.0877   -4.6255    0.7873 C   0  0  0  0  0  0  0  0  0  0  0  0
    8.2418   -2.5979    1.4070 C   0  0  0  0  0  0  0  0  0  0  0  0
    8.2767   -3.9293    0.9948 C   0  0  0  0  0  0  0  0  0  0  0  0
   -3.6030   -2.3778   -1.4161 H   0  0  0  0  0  0  0  0  0  0  0  0
   -3.0907   -0.0396   -1.3809 H   0  0  0  0  0  0  0  0  0  0  0  0
   -1.8255   -1.0554   -0.9664 H   0  0  0  0  0  0  0  0  0  0  0  0
   -3.5650    0.4756    0.9073 H   0  0  0  0  0  0  0  0  0  0  0  0
   -2.0018   -0.2753    1.2915 H   0  0  0  0  0  0  0  0  0  0  0  0
   -4.7441   -2.0243    1.3702 H   0  0  0  0  0  0  0  0  0  0  0  0
   -3.0102   -2.2821    1.3210 H   0  0  0  0  0  0  0  0  0  0  0  0
   -6.1956   -4.2611   -0.2041 H   0  0  0  0  0  0  0  0  0  0  0  0
   -5.4281   -6.6908   -0.0866 H   0  0  0  0  0  0  0  0  0  0  0  0
   -3.0524   -6.8938    0.8133 H   0  0  0  0  0  0  0  0  0  0  0  0
   -3.5281    2.9641   -0.3018 H   0  0  0  0  0  0  0  0  0  0  0  0
    1.2238    0.9443   -1.9721 H   0  0  0  0  0  0  0  0  0  0  0  0
    0.2894    0.4732    2.2168 H   0  0  0  0  0  0  0  0  0  0  0  0
   -3.7867    4.9499   -1.1175 H   0  0  0  0  0  0  0  0  0  0  0  0
    0.5427    5.2385   -1.1144 H   0  0  0  0  0  0  0  0  0  0  0  0
    3.0819   -0.6598   -1.7258 H   0  0  0  0  0  0  0  0  0  0  0  0
    2.1206   -1.1236    2.4539 H   0  0  0  0  0  0  0  0  0  0  0  0
   -3.9410    7.2718   -1.8697 H   0  0  0  0  0  0  0  0  0  0  0  0
   -1.9125    8.6163   -2.2521 H   0  0  0  0  0  0  0  0  0  0  0  0
    3.8938   -2.5879    2.3426 H   0  0  0  0  0  0  0  0  0  0  0  0
    4.6493   -0.9859    2.0986 H   0  0  0  0  0  0  0  0  0  0  0  0
    4.9408   -4.5398    0.8202 H   0  0  0  0  0  0  0  0  0  0  0  0
    7.0099   -0.9191    1.9312 H   0  0  0  0  0  0  0  0  0  0  0  0
    7.1147   -5.6600    0.4574 H   0  0  0  0  0  0  0  0  0  0  0  0
    9.1689   -2.0521    1.5630 H   0  0  0  0  0  0  0  0  0  0  0  0
    9.2301   -4.4241    0.8324 H   0  0  0  0  0  0  0  0  0  0  0  0
  1  2  1  0
  2  3  1  0
  1  4  1  0
  1  5  1  0
  4  6  2  0
  4  7  1  0
  5  8  1  0
  8  9  2  0
 10  8  1  0
  9 11  1  0
 12 10  2  0
 11 12  1  0
  3 13  1  0
 13 14  2  0
 15 13  1  0
 14 16  1  0
 17 15  2  0
 15 18  1  0
 16 19  1  0
 16 17  1  0
 18 20  2  0
 21 18  1  0
 19 22  2  0
 23 19  1  0
 20 24  1  0
 25 21  2  0
 22 26  1  0
 27 23  2  0
 24 28  2  0
 28 25  1  0
 26 29  2  0
 29 27  1  0
 27 30  1  0
 28 31  1  0
 30 32  1  0
 30 33  2  0
 31 34  1  0
 34 35  1  0
 35 36  2  0
 37 35  1  0
 36 38  1  0
 39 37  2  0
 38 40  2  0
 40 39  1  0
  1 41  1  6
  2 42  1  0
  2 43  1  0
  3 44  1  0
  3 45  1  0
  5 46  1  0
  5 47  1  0
  9 48  1  0
 11 49  1  0
 12 50  1  0
 14 51  1  0
 20 52  1  0
 21 53  1  0
 22 54  1  0
 23 55  1  0
 24 56  1  0
 25 57  1  0
 26 58  1  0
 29 59  1  0
 34 60  1  0
 34 61  1  0
 36 62  1  0
 37 63  1  0
 38 64  1  0
 39 65  1  0
 40 66  1  0
M  CHG  4   2   1   7  -1  30   1  32  -1
M  END
>  <SMILES_raw>  (121) 
O=C(O)[C@H](CC1=CNC=N1)NCC2=CN(C3=CC=CC([N+]([O-])=O)=C3)N=C2C4=CC=C(OCC5=CC=CC=C5)C=C4

>  <Protonation_Method>  (121) 
MolScrub

>  <Target_pH>  (121) 
7.4

$$$$
N-((3-(4-(benzyloxy)phenyl)-1-(3-nitrophenyl)-1H-pyrazol-4-yl)methyl)-L-valin
     RDKit          3D

 65 68  0  0  0  0  0  0  0  0999 V2000
   -3.5424   -3.1784   -0.2414 C   0  0  2  0  0  0  0  0  0  0  0  0
   -2.7663   -1.9137   -0.6590 N   0  0  0  0  0  0  0  0  0  0  0  0
   -2.3382   -0.9725    0.3986 C   0  0  0  0  0  0  0  0  0  0  0  0
   -5.0189   -2.7700    0.0939 C   0  0  0  0  0  0  0  0  0  0  0  0
   -2.6988   -4.0778    0.6788 C   0  0  0  0  0  0  0  0  0  0  0  0
   -5.7121   -3.5602    0.7631 O   0  0  0  0  0  0  0  0  0  0  0  0
   -5.2605   -1.6154   -0.3965 O   0  0  0  0  0  0  0  0  0  0  0  0
   -3.0934   -5.5496    0.4940 C   0  0  0  0  0  0  0  0  0  0  0  0
   -2.7854   -3.7301    2.1684 C   0  0  0  0  0  0  0  0  0  0  0  0
   -2.1402    0.3886   -0.1621 C   0  0  0  0  0  0  0  0  0  0  0  0
   -3.1298    1.2495   -0.5981 C   0  0  0  0  0  0  0  0  0  0  0  0
   -0.9361    1.1165   -0.3476 C   0  0  0  0  0  0  0  0  0  0  0  0
   -2.5198    2.4077   -1.0146 N   0  0  0  0  0  0  0  0  0  0  0  0
   -1.1782    2.3313   -0.8526 N   0  0  0  0  0  0  0  0  0  0  0  0
    0.4275    0.6973   -0.0490 C   0  0  0  0  0  0  0  0  0  0  0  0
   -3.1238    3.5731   -1.5650 C   0  0  0  0  0  0  0  0  0  0  0  0
    0.9697   -0.4480   -0.6395 C   0  0  0  0  0  0  0  0  0  0  0  0
    1.2097    1.4453    0.8384 C   0  0  0  0  0  0  0  0  0  0  0  0
   -4.5148    3.6591   -1.7308 C   0  0  0  0  0  0  0  0  0  0  0  0
   -2.3116    4.6488   -1.9585 C   0  0  0  0  0  0  0  0  0  0  0  0
    2.2723   -0.8448   -0.3265 C   0  0  0  0  0  0  0  0  0  0  0  0
    2.5144    1.0449    1.1489 C   0  0  0  0  0  0  0  0  0  0  0  0
   -5.0904    4.8079   -2.2828 C   0  0  0  0  0  0  0  0  0  0  0  0
   -2.9004    5.7922   -2.5156 C   0  0  0  0  0  0  0  0  0  0  0  0
    3.0511   -0.1020    0.5644 C   0  0  0  0  0  0  0  0  0  0  0  0
   -4.2879    5.8772   -2.6780 C   0  0  0  0  0  0  0  0  0  0  0  0
   -2.0547    6.9167   -2.9310 N   0  0  0  0  0  0  0  0  0  0  0  0
    4.3054   -0.6016    0.7748 O   0  0  0  0  0  0  0  0  0  0  0  0
   -2.5766    7.8021   -3.6231 O   0  0  0  0  0  0  0  0  0  0  0  0
   -0.8707    6.9134   -2.5670 O   0  0  0  0  0  0  0  0  0  0  0  0
    5.2180    0.2219    1.4996 C   0  0  0  0  0  0  0  0  0  0  0  0
    6.5836   -0.4167    1.4346 C   0  0  0  0  0  0  0  0  0  0  0  0
    7.3541   -0.3144    0.2667 C   0  0  0  0  0  0  0  0  0  0  0  0
    7.0953   -1.1355    2.5241 C   0  0  0  0  0  0  0  0  0  0  0  0
    8.6186   -0.9018    0.1971 C   0  0  0  0  0  0  0  0  0  0  0  0
    8.3603   -1.7239    2.4523 C   0  0  0  0  0  0  0  0  0  0  0  0
    9.1223   -1.6039    1.2909 C   0  0  0  0  0  0  0  0  0  0  0  0
   -3.6427   -3.6995   -1.2041 H   0  0  0  0  0  0  0  0  0  0  0  0
   -3.5671   -1.4055   -1.1019 H   0  0  0  0  0  0  0  0  0  0  0  0
   -2.0726   -2.0825   -1.3858 H   0  0  0  0  0  0  0  0  0  0  0  0
   -1.4193   -1.3740    0.8333 H   0  0  0  0  0  0  0  0  0  0  0  0
   -3.1151   -0.9407    1.1692 H   0  0  0  0  0  0  0  0  0  0  0  0
   -1.6465   -3.9948    0.3790 H   0  0  0  0  0  0  0  0  0  0  0  0
   -2.4408   -6.1990    1.0865 H   0  0  0  0  0  0  0  0  0  0  0  0
   -2.9931   -5.8530   -0.5532 H   0  0  0  0  0  0  0  0  0  0  0  0
   -4.1254   -5.7356    0.8081 H   0  0  0  0  0  0  0  0  0  0  0  0
   -2.1879   -4.4347    2.7597 H   0  0  0  0  0  0  0  0  0  0  0  0
   -2.3957   -2.7341    2.3855 H   0  0  0  0  0  0  0  0  0  0  0  0
   -3.8120   -3.7804    2.5433 H   0  0  0  0  0  0  0  0  0  0  0  0
   -4.2035    1.1163   -0.6271 H   0  0  0  0  0  0  0  0  0  0  0  0
    0.4069   -1.0243   -1.3661 H   0  0  0  0  0  0  0  0  0  0  0  0
    0.8078    2.3510    1.2910 H   0  0  0  0  0  0  0  0  0  0  0  0
   -5.1838    2.8520   -1.4418 H   0  0  0  0  0  0  0  0  0  0  0  0
   -1.2298    4.5956   -1.8329 H   0  0  0  0  0  0  0  0  0  0  0  0
    2.6957   -1.7318   -0.7937 H   0  0  0  0  0  0  0  0  0  0  0  0
    3.0806    1.6538    1.8465 H   0  0  0  0  0  0  0  0  0  0  0  0
   -6.1707    4.8663   -2.4056 H   0  0  0  0  0  0  0  0  0  0  0  0
   -4.7551    6.7617   -3.1070 H   0  0  0  0  0  0  0  0  0  0  0  0
    5.2792    1.2260    1.0595 H   0  0  0  0  0  0  0  0  0  0  0  0
    4.8955    0.3105    2.5445 H   0  0  0  0  0  0  0  0  0  0  0  0
    6.9686    0.2238   -0.5968 H   0  0  0  0  0  0  0  0  0  0  0  0
    6.5114   -1.2459    3.4347 H   0  0  0  0  0  0  0  0  0  0  0  0
    9.2087   -0.8132   -0.7119 H   0  0  0  0  0  0  0  0  0  0  0  0
    8.7488   -2.2794    3.3022 H   0  0  0  0  0  0  0  0  0  0  0  0
   10.1067   -2.0619    1.2350 H   0  0  0  0  0  0  0  0  0  0  0  0
  1  2  1  0
  2  3  1  0
  1  4  1  0
  5  1  1  0
  4  6  2  0
  4  7  1  0
  8  5  1  0
  5  9  1  0
  3 10  1  0
 10 11  2  0
 12 10  1  0
 11 13  1  0
 14 12  2  0
 12 15  1  0
 13 16  1  0
 13 14  1  0
 15 17  2  0
 18 15  1  0
 16 19  2  0
 20 16  1  0
 17 21  1  0
 22 18  2  0
 19 23  1  0
 24 20  2  0
 21 25  2  0
 25 22  1  0
 23 26  2  0
 26 24  1  0
 24 27  1  0
 25 28  1  0
 27 29  1  0
 27 30  2  0
 28 31  1  0
 31 32  1  0
 32 33  2  0
 34 32  1  0
 33 35  1  0
 36 34  2  0
 35 37  2  0
 37 36  1  0
  1 38  1  6
  2 39  1  0
  2 40  1  0
  3 41  1  0
  3 42  1  0
  5 43  1  0
  8 44  1  0
  8 45  1  0
  8 46  1  0
  9 47  1  0
  9 48  1  0
  9 49  1  0
 11 50  1  0
 17 51  1  0
 18 52  1  0
 19 53  1  0
 20 54  1  0
 21 55  1  0
 22 56  1  0
 23 57  1  0
 26 58  1  0
 31 59  1  0
 31 60  1  0
 33 61  1  0
 34 62  1  0
 35 63  1  0
 36 64  1  0
 37 65  1  0
M  CHG  4   2   1   7  -1  27   1  29  -1
M  END
>  <SMILES_raw>  (122) 
CC(C)[C@@H](C(O)=O)NCC1=CN(C2=CC=CC([N+]([O-])=O)=C2)N=C1C3=CC=C(OCC4=CC=CC=C4)C=C3

>  <Protonation_Method>  (122) 
MolScrub

>  <Target_pH>  (122) 
7.4

$$$$
N-((3-(4-((3-chlorobenzyl)oxy)phenyl)-1-(3-nitrophenyl)-1H-pyrazol-4-yl)methyl)-L-alanin
     RDKit          3D

 59 62  0  0  0  0  0  0  0  0999 V2000
   -3.1579   -3.0414   -1.1274 C   0  0  2  0  0  0  0  0  0  0  0  0
   -1.8601   -2.8621   -0.3348 N   0  0  0  0  0  0  0  0  0  0  0  0
   -2.0148   -2.1280    0.9444 C   0  0  0  0  0  0  0  0  0  0  0  0
   -4.0169   -4.1632   -0.4797 C   0  0  0  0  0  0  0  0  0  0  0  0
   -2.7856   -3.4984   -2.5297 C   0  0  0  0  0  0  0  0  0  0  0  0
   -3.2867   -4.8987    0.2616 O   0  0  0  0  0  0  0  0  0  0  0  0
   -5.2472   -4.1303   -0.6939 O   0  0  0  0  0  0  0  0  0  0  0  0
   -2.2581   -0.6747    0.7689 C   0  0  0  0  0  0  0  0  0  0  0  0
   -3.4572    0.0035    0.8800 C   0  0  0  0  0  0  0  0  0  0  0  0
   -1.3162    0.3379    0.4564 C   0  0  0  0  0  0  0  0  0  0  0  0
   -3.2029    1.3371    0.6507 N   0  0  0  0  0  0  0  0  0  0  0  0
   -1.8897    1.5416    0.3917 N   0  0  0  0  0  0  0  0  0  0  0  0
    0.1047    0.1711    0.2065 C   0  0  0  0  0  0  0  0  0  0  0  0
   -4.1200    2.4253    0.6639 C   0  0  0  0  0  0  0  0  0  0  0  0
    1.0222    0.2890    1.2552 C   0  0  0  0  0  0  0  0  0  0  0  0
    0.5563   -0.1376   -1.0789 C   0  0  0  0  0  0  0  0  0  0  0  0
   -5.4881    2.2203    0.9001 C   0  0  0  0  0  0  0  0  0  0  0  0
   -3.6423    3.7272    0.4406 C   0  0  0  0  0  0  0  0  0  0  0  0
    2.3872    0.0837    1.0238 C   0  0  0  0  0  0  0  0  0  0  0  0
    1.9178   -0.3491   -1.3032 C   0  0  0  0  0  0  0  0  0  0  0  0
   -6.3703    3.3046    0.9160 C   0  0  0  0  0  0  0  0  0  0  0  0
   -4.5352    4.8063    0.4623 C   0  0  0  0  0  0  0  0  0  0  0  0
    2.8387   -0.2391   -0.2565 C   0  0  0  0  0  0  0  0  0  0  0  0
   -5.8997    4.5992    0.6987 C   0  0  0  0  0  0  0  0  0  0  0  0
   -4.0354    6.1680    0.2396 N   0  0  0  0  0  0  0  0  0  0  0  0
    4.1347   -0.4750   -0.6162 O   0  0  0  0  0  0  0  0  0  0  0  0
   -2.8174    6.3171    0.0724 O   0  0  0  0  0  0  0  0  0  0  0  0
   -4.8628    7.0891    0.2348 O   0  0  0  0  0  0  0  0  0  0  0  0
    5.1442   -0.2014    0.3524 C   0  0  0  0  0  0  0  0  0  0  0  0
    6.4898   -0.4133   -0.2972 C   0  0  0  0  0  0  0  0  0  0  0  0
    7.3671   -1.4027    0.1677 C   0  0  0  0  0  0  0  0  0  0  0  0
    6.8812    0.3853   -1.3831 C   0  0  0  0  0  0  0  0  0  0  0  0
    8.6096   -1.5920   -0.4420 C   0  0  0  0  0  0  0  0  0  0  0  0
    8.1207    0.1888   -1.9903 C   0  0  0  0  0  0  0  0  0  0  0  0
    8.9867   -0.7965   -1.5237 C   0  0  0  0  0  0  0  0  0  0  0  0
    8.5824    1.1697   -3.3275 Cl  0  0  0  0  0  0  0  0  0  0  0  0
   -3.6785   -2.0787   -1.1582 H   0  0  0  0  0  0  0  0  0  0  0  0
   -1.6976   -3.8518   -0.0428 H   0  0  0  0  0  0  0  0  0  0  0  0
   -1.0700   -2.5506   -0.9002 H   0  0  0  0  0  0  0  0  0  0  0  0
   -1.0872   -2.2955    1.5039 H   0  0  0  0  0  0  0  0  0  0  0  0
   -2.8254   -2.5948    1.5135 H   0  0  0  0  0  0  0  0  0  0  0  0
   -3.6790   -3.6245   -3.1473 H   0  0  0  0  0  0  0  0  0  0  0  0
   -2.1451   -2.7652   -3.0193 H   0  0  0  0  0  0  0  0  0  0  0  0
   -2.2566   -4.4561   -2.5198 H   0  0  0  0  0  0  0  0  0  0  0  0
   -4.4492   -0.3621    1.1041 H   0  0  0  0  0  0  0  0  0  0  0  0
    0.6832    0.5524    2.2560 H   0  0  0  0  0  0  0  0  0  0  0  0
   -0.1381   -0.1936   -1.9132 H   0  0  0  0  0  0  0  0  0  0  0  0
   -5.9061    1.2322    1.0728 H   0  0  0  0  0  0  0  0  0  0  0  0
   -2.5825    3.8994    0.2547 H   0  0  0  0  0  0  0  0  0  0  0  0
    3.0678    0.1858    1.8650 H   0  0  0  0  0  0  0  0  0  0  0  0
    2.2711   -0.5847   -2.3039 H   0  0  0  0  0  0  0  0  0  0  0  0
   -7.4306    3.1371    1.0989 H   0  0  0  0  0  0  0  0  0  0  0  0
   -6.6038    5.4284    0.7170 H   0  0  0  0  0  0  0  0  0  0  0  0
    5.0842    0.8360    0.6976 H   0  0  0  0  0  0  0  0  0  0  0  0
    5.0315   -0.8775    1.2074 H   0  0  0  0  0  0  0  0  0  0  0  0
    7.0885   -2.0381    1.0057 H   0  0  0  0  0  0  0  0  0  0  0  0
    6.2108    1.1546   -1.7584 H   0  0  0  0  0  0  0  0  0  0  0  0
    9.2826   -2.3629   -0.0753 H   0  0  0  0  0  0  0  0  0  0  0  0
    9.9515   -0.9508   -1.9984 H   0  0  0  0  0  0  0  0  0  0  0  0
  1  2  1  0
  2  3  1  0
  1  4  1  0
  5  1  1  0
  4  6  2  0
  4  7  1  0
  3  8  1  0
  8  9  2  0
 10  8  1  0
  9 11  1  0
 12 10  2  0
 10 13  1  0
 11 14  1  0
 11 12  1  0
 13 15  2  0
 16 13  1  0
 14 17  2  0
 18 14  1  0
 15 19  1  0
 20 16  2  0
 17 21  1  0
 22 18  2  0
 19 23  2  0
 23 20  1  0
 21 24  2  0
 24 22  1  0
 22 25  1  0
 23 26  1  0
 25 27  1  0
 25 28  2  0
 26 29  1  0
 29 30  1  0
 30 31  2  0
 32 30  1  0
 31 33  1  0
 34 32  2  0
 33 35  2  0
 35 34  1  0
 34 36  1  0
  1 37  1  6
  2 38  1  0
  2 39  1  0
  3 40  1  0
  3 41  1  0
  5 42  1  0
  5 43  1  0
  5 44  1  0
  9 45  1  0
 15 46  1  0
 16 47  1  0
 17 48  1  0
 18 49  1  0
 19 50  1  0
 20 51  1  0
 21 52  1  0
 24 53  1  0
 29 54  1  0
 29 55  1  0
 31 56  1  0
 32 57  1  0
 33 58  1  0
 35 59  1  0
M  CHG  4   2   1   7  -1  25   1  27  -1
M  END
>  <SMILES_raw>  (123) 
C[C@@H](C(O)=O)NCC1=CN(C2=CC=CC([N+]([O-])=O)=C2)N=C1C3=CC=C(OCC4=CC=CC(Cl)=C4)C=C3

>  <Protonation_Method>  (123) 
MolScrub

>  <Target_pH>  (123) 
7.4

$$$$
N-((3-(4-((3-chlorobenzyl)oxy)phenyl)-1-(3-nitrophenyl)-1H-pyrazol-4-yl)methyl)-L-valin
     RDKit          3D

 65 68  0  0  0  0  0  0  0  0999 V2000
   -2.9271   -2.9851    0.8397 C   0  0  2  0  0  0  0  0  0  0  0  0
   -2.5493   -1.5543    0.3911 N   0  0  0  0  0  0  0  0  0  0  0  0
   -1.9647   -0.6756    1.4135 C   0  0  0  0  0  0  0  0  0  0  0  0
   -2.0808   -3.9851   -0.0239 C   0  0  0  0  0  0  0  0  0  0  0  0
   -4.4594   -3.1098    0.8161 C   0  0  0  0  0  0  0  0  0  0  0  0
   -1.2352   -3.3209   -0.7161 O   0  0  0  0  0  0  0  0  0  0  0  0
   -2.3305   -5.2013    0.0633 O   0  0  0  0  0  0  0  0  0  0  0  0
   -5.0359   -3.1862   -0.6010 C   0  0  0  0  0  0  0  0  0  0  0  0
   -4.9434   -4.3093    1.6341 C   0  0  0  0  0  0  0  0  0  0  0  0
   -1.5101    0.6014    0.8100 C   0  0  0  0  0  0  0  0  0  0  0  0
   -2.2876    1.6616    0.3823 C   0  0  0  0  0  0  0  0  0  0  0  0
   -0.1742    1.0188    0.5560 C   0  0  0  0  0  0  0  0  0  0  0  0
   -1.4316    2.6312   -0.0984 N   0  0  0  0  0  0  0  0  0  0  0  0
   -0.1415    2.2541    0.0440 N   0  0  0  0  0  0  0  0  0  0  0  0
    1.0573    0.2852    0.8182 C   0  0  0  0  0  0  0  0  0  0  0  0
   -1.7664    3.8876   -0.6804 C   0  0  0  0  0  0  0  0  0  0  0  0
    2.0029    0.8046    1.7095 C   0  0  0  0  0  0  0  0  0  0  0  0
    1.2936   -0.9574    0.2125 C   0  0  0  0  0  0  0  0  0  0  0  0
   -0.7387    4.7242   -1.1546 C   0  0  0  0  0  0  0  0  0  0  0  0
   -3.0999    4.2951   -0.8165 C   0  0  0  0  0  0  0  0  0  0  0  0
    3.1600    0.0787    2.0043 C   0  0  0  0  0  0  0  0  0  0  0  0
    2.4525   -1.6821    0.5114 C   0  0  0  0  0  0  0  0  0  0  0  0
   -1.0370    5.9545   -1.7509 C   0  0  0  0  0  0  0  0  0  0  0  0
   -3.3867    5.5441   -1.3941 C   0  0  0  0  0  0  0  0  0  0  0  0
    3.3943   -1.1577    1.3971 C   0  0  0  0  0  0  0  0  0  0  0  0
   -2.3621    6.3699   -1.8750 C   0  0  0  0  0  0  0  0  0  0  0  0
   -4.7840    5.9840   -1.5056 N   0  0  0  0  0  0  0  0  0  0  0  0
    4.5421   -1.7963    1.7786 O   0  0  0  0  0  0  0  0  0  0  0  0
   -5.6505    5.2843   -0.9571 O   0  0  0  0  0  0  0  0  0  0  0  0
   -5.0135    7.0293   -2.1288 O   0  0  0  0  0  0  0  0  0  0  0  0
    5.2677   -2.4694    0.7426 C   0  0  0  0  0  0  0  0  0  0  0  0
    6.0322   -1.4907   -0.1184 C   0  0  0  0  0  0  0  0  0  0  0  0
    7.1223   -0.7811    0.4098 C   0  0  0  0  0  0  0  0  0  0  0  0
    5.6497   -1.2574   -1.4478 C   0  0  0  0  0  0  0  0  0  0  0  0
    7.8240    0.1340   -0.3780 C   0  0  0  0  0  0  0  0  0  0  0  0
    6.3514   -0.3367   -2.2286 C   0  0  0  0  0  0  0  0  0  0  0  0
    7.4374    0.3583   -1.6991 C   0  0  0  0  0  0  0  0  0  0  0  0
    5.8722   -0.0591   -3.8603 Cl  0  0  0  0  0  0  0  0  0  0  0  0
   -2.5589   -3.0782    1.8704 H   0  0  0  0  0  0  0  0  0  0  0  0
   -1.7842   -1.8030   -0.2918 H   0  0  0  0  0  0  0  0  0  0  0  0
   -3.2667   -1.1196   -0.1928 H   0  0  0  0  0  0  0  0  0  0  0  0
   -1.1458   -1.2197    1.8956 H   0  0  0  0  0  0  0  0  0  0  0  0
   -2.7445   -0.4897    2.1609 H   0  0  0  0  0  0  0  0  0  0  0  0
   -4.8800   -2.2145    1.2949 H   0  0  0  0  0  0  0  0  0  0  0  0
   -6.1308   -3.1752   -0.5685 H   0  0  0  0  0  0  0  0  0  0  0  0
   -4.7201   -2.3368   -1.2152 H   0  0  0  0  0  0  0  0  0  0  0  0
   -4.7296   -4.1049   -1.1136 H   0  0  0  0  0  0  0  0  0  0  0  0
   -4.6335   -5.2626    1.1948 H   0  0  0  0  0  0  0  0  0  0  0  0
   -4.5601   -4.2634    2.6553 H   0  0  0  0  0  0  0  0  0  0  0  0
   -6.0361   -4.3169    1.6948 H   0  0  0  0  0  0  0  0  0  0  0  0
   -3.3599    1.7966    0.3860 H   0  0  0  0  0  0  0  0  0  0  0  0
    1.8466    1.7742    2.1785 H   0  0  0  0  0  0  0  0  0  0  0  0
    0.5926   -1.3831   -0.5035 H   0  0  0  0  0  0  0  0  0  0  0  0
    0.3083    4.4362   -1.0594 H   0  0  0  0  0  0  0  0  0  0  0  0
   -3.9214    3.6707   -0.4843 H   0  0  0  0  0  0  0  0  0  0  0  0
    3.8926    0.4854    2.6975 H   0  0  0  0  0  0  0  0  0  0  0  0
    2.5758   -2.6593    0.0531 H   0  0  0  0  0  0  0  0  0  0  0  0
   -0.2282    6.5874   -2.1130 H   0  0  0  0  0  0  0  0  0  0  0  0
   -2.5796    7.3337   -2.3312 H   0  0  0  0  0  0  0  0  0  0  0  0
    5.9942   -3.1233    1.2401 H   0  0  0  0  0  0  0  0  0  0  0  0
    4.6380   -3.1436    0.1510 H   0  0  0  0  0  0  0  0  0  0  0  0
    7.4281   -0.9372    1.4422 H   0  0  0  0  0  0  0  0  0  0  0  0
    4.8005   -1.7872   -1.8749 H   0  0  0  0  0  0  0  0  0  0  0  0
    8.6695    0.6745    0.0397 H   0  0  0  0  0  0  0  0  0  0  0  0
    7.9835    1.0742   -2.3063 H   0  0  0  0  0  0  0  0  0  0  0  0
  1  2  1  0
  2  3  1  0
  1  4  1  0
  5  1  1  0
  4  6  2  0
  4  7  1  0
  8  5  1  0
  5  9  1  0
  3 10  1  0
 10 11  2  0
 12 10  1  0
 11 13  1  0
 14 12  2  0
 12 15  1  0
 13 16  1  0
 13 14  1  0
 15 17  2  0
 18 15  1  0
 16 19  2  0
 20 16  1  0
 17 21  1  0
 22 18  2  0
 19 23  1  0
 24 20  2  0
 21 25  2  0
 25 22  1  0
 23 26  2  0
 26 24  1  0
 24 27  1  0
 25 28  1  0
 27 29  1  0
 27 30  2  0
 28 31  1  0
 31 32  1  0
 32 33  2  0
 34 32  1  0
 33 35  1  0
 36 34  2  0
 35 37  2  0
 37 36  1  0
 36 38  1  0
  1 39  1  1
  2 40  1  0
  2 41  1  0
  3 42  1  0
  3 43  1  0
  5 44  1  0
  8 45  1  0
  8 46  1  0
  8 47  1  0
  9 48  1  0
  9 49  1  0
  9 50  1  0
 11 51  1  0
 17 52  1  0
 18 53  1  0
 19 54  1  0
 20 55  1  0
 21 56  1  0
 22 57  1  0
 23 58  1  0
 26 59  1  0
 31 60  1  0
 31 61  1  0
 33 62  1  0
 34 63  1  0
 35 64  1  0
 37 65  1  0
M  CHG  4   2   1   7  -1  27   1  29  -1
M  END
>  <SMILES_raw>  (124) 
CC(C)[C@@H](C(O)=O)NCC1=CN(C2=CC=CC([N+]([O-])=O)=C2)N=C1C3=CC=C(OCC4=CC=CC(Cl)=C4)C=C3

>  <Protonation_Method>  (124) 
MolScrub

>  <Target_pH>  (124) 
7.4

$$$$
N-((3-(4-((4-chlorobenzyl)oxy)phenyl)-1-(3-nitrophenyl)-1H-pyrazol-4-yl)methyl)-L-alanin
     RDKit          3D

 59 62  0  0  0  0  0  0  0  0999 V2000
   -4.1710   -3.0249   -0.3094 C   0  0  2  0  0  0  0  0  0  0  0  0
   -2.6604   -3.0052   -0.0611 N   0  0  0  0  0  0  0  0  0  0  0  0
   -2.2132   -2.1199    1.0364 C   0  0  0  0  0  0  0  0  0  0  0  0
   -4.8392   -4.0238    0.6818 C   0  0  0  0  0  0  0  0  0  0  0  0
   -4.4099   -3.5303   -1.7227 C   0  0  0  0  0  0  0  0  0  0  0  0
   -6.0738   -3.9271    0.8473 O   0  0  0  0  0  0  0  0  0  0  0  0
   -3.9417   -4.7569    1.2186 O   0  0  0  0  0  0  0  0  0  0  0  0
   -2.0895   -0.6986    0.6237 C   0  0  0  0  0  0  0  0  0  0  0  0
   -3.0685    0.2778    0.6445 C   0  0  0  0  0  0  0  0  0  0  0  0
   -0.9291   -0.0155    0.1676 C   0  0  0  0  0  0  0  0  0  0  0  0
   -2.4911    1.4553    0.2246 N   0  0  0  0  0  0  0  0  0  0  0  0
   -1.1815    1.2762   -0.0626 N   0  0  0  0  0  0  0  0  0  0  0  0
    0.4074   -0.5582   -0.0325 C   0  0  0  0  0  0  0  0  0  0  0  0
   -3.0993    2.7347    0.0813 C   0  0  0  0  0  0  0  0  0  0  0  0
    1.4646   -0.1349    0.7827 C   0  0  0  0  0  0  0  0  0  0  0  0
    0.6470   -1.5076   -1.0321 C   0  0  0  0  0  0  0  0  0  0  0  0
   -4.4563    2.9310    0.3773 C   0  0  0  0  0  0  0  0  0  0  0  0
   -2.3252    3.8184   -0.3674 C   0  0  0  0  0  0  0  0  0  0  0  0
    2.7449   -0.6801    0.6244 C   0  0  0  0  0  0  0  0  0  0  0  0
    1.9257   -2.0507   -1.1837 C   0  0  0  0  0  0  0  0  0  0  0  0
   -5.0355    4.1953    0.2275 C   0  0  0  0  0  0  0  0  0  0  0  0
   -2.9176    5.0807   -0.5155 C   0  0  0  0  0  0  0  0  0  0  0  0
    2.9776   -1.6510   -0.3514 C   0  0  0  0  0  0  0  0  0  0  0  0
   -4.2708    5.2734   -0.2170 C   0  0  0  0  0  0  0  0  0  0  0  0
   -2.1142    6.2134   -0.9908 N   0  0  0  0  0  0  0  0  0  0  0  0
    4.1671   -2.2693   -0.6157 O   0  0  0  0  0  0  0  0  0  0  0  0
   -2.6903    7.2990   -1.1512 O   0  0  0  0  0  0  0  0  0  0  0  0
   -0.9096    6.0181   -1.2041 O   0  0  0  0  0  0  0  0  0  0  0  0
    5.2821   -2.0187    0.2454 C   0  0  0  0  0  0  0  0  0  0  0  0
    6.0521   -0.7697   -0.1258 C   0  0  0  0  0  0  0  0  0  0  0  0
    6.1754   -0.3637   -1.4639 C   0  0  0  0  0  0  0  0  0  0  0  0
    6.7109   -0.0311    0.8697 C   0  0  0  0  0  0  0  0  0  0  0  0
    6.9165    0.7728   -1.7982 C   0  0  0  0  0  0  0  0  0  0  0  0
    7.4533    1.1053    0.5360 C   0  0  0  0  0  0  0  0  0  0  0  0
    7.5509    1.5032   -0.7969 C   0  0  0  0  0  0  0  0  0  0  0  0
    8.4708    2.8989   -1.2076 Cl  0  0  0  0  0  0  0  0  0  0  0  0
   -4.5567   -2.0082   -0.1853 H   0  0  0  0  0  0  0  0  0  0  0  0
   -2.5575   -3.9710    0.3356 H   0  0  0  0  0  0  0  0  0  0  0  0
   -2.0972   -2.9506   -0.9080 H   0  0  0  0  0  0  0  0  0  0  0  0
   -1.2474   -2.5120    1.3702 H   0  0  0  0  0  0  0  0  0  0  0  0
   -2.9144   -2.2275    1.8714 H   0  0  0  0  0  0  0  0  0  0  0  0
   -5.4811   -3.5495   -1.9509 H   0  0  0  0  0  0  0  0  0  0  0  0
   -4.0257   -4.5478   -1.8595 H   0  0  0  0  0  0  0  0  0  0  0  0
   -3.9242   -2.8807   -2.4596 H   0  0  0  0  0  0  0  0  0  0  0  0
   -4.1067    0.2219    0.9386 H   0  0  0  0  0  0  0  0  0  0  0  0
    1.3009    0.6324    1.5395 H   0  0  0  0  0  0  0  0  0  0  0  0
   -0.1376   -1.8086   -1.7211 H   0  0  0  0  0  0  0  0  0  0  0  0
   -5.0971    2.1253    0.7255 H   0  0  0  0  0  0  0  0  0  0  0  0
   -1.2705    3.6794   -0.6021 H   0  0  0  0  0  0  0  0  0  0  0  0
    3.5354   -0.3077    1.2691 H   0  0  0  0  0  0  0  0  0  0  0  0
    2.1119   -2.7835   -1.9679 H   0  0  0  0  0  0  0  0  0  0  0  0
   -6.0895    4.3399    0.4574 H   0  0  0  0  0  0  0  0  0  0  0  0
   -4.7432    6.2480   -0.3264 H   0  0  0  0  0  0  0  0  0  0  0  0
    4.9768   -2.0226    1.2995 H   0  0  0  0  0  0  0  0  0  0  0  0
    5.9643   -2.8694    0.1260 H   0  0  0  0  0  0  0  0  0  0  0  0
    5.6909   -0.9322   -2.2561 H   0  0  0  0  0  0  0  0  0  0  0  0
    6.6552   -0.3381    1.9121 H   0  0  0  0  0  0  0  0  0  0  0  0
    6.9972    1.0769   -2.8396 H   0  0  0  0  0  0  0  0  0  0  0  0
    7.9577    1.6691    1.3158 H   0  0  0  0  0  0  0  0  0  0  0  0
  1  2  1  0
  2  3  1  0
  1  4  1  0
  5  1  1  0
  4  6  2  0
  4  7  1  0
  3  8  1  0
  8  9  2  0
 10  8  1  0
  9 11  1  0
 12 10  2  0
 10 13  1  0
 11 14  1  0
 11 12  1  0
 13 15  2  0
 16 13  1  0
 14 17  2  0
 18 14  1  0
 15 19  1  0
 20 16  2  0
 17 21  1  0
 22 18  2  0
 19 23  2  0
 23 20  1  0
 21 24  2  0
 24 22  1  0
 22 25  1  0
 23 26  1  0
 25 27  1  0
 25 28  2  0
 26 29  1  0
 29 30  1  0
 30 31  2  0
 32 30  1  0
 31 33  1  0
 34 32  2  0
 33 35  2  0
 35 34  1  0
 35 36  1  0
  1 37  1  6
  2 38  1  0
  2 39  1  0
  3 40  1  0
  3 41  1  0
  5 42  1  0
  5 43  1  0
  5 44  1  0
  9 45  1  0
 15 46  1  0
 16 47  1  0
 17 48  1  0
 18 49  1  0
 19 50  1  0
 20 51  1  0
 21 52  1  0
 24 53  1  0
 29 54  1  0
 29 55  1  0
 31 56  1  0
 32 57  1  0
 33 58  1  0
 34 59  1  0
M  CHG  4   2   1   7  -1  25   1  27  -1
M  END
>  <SMILES_raw>  (125) 
C[C@@H](C(O)=O)NCC1=CN(C2=CC=CC([N+]([O-])=O)=C2)N=C1C3=CC=C(OCC4=CC=C(Cl)C=C4)C=C3

>  <Protonation_Method>  (125) 
MolScrub

>  <Target_pH>  (125) 
7.4

$$$$
N-((3-(4-((4-chlorobenzyl)oxy)phenyl)-1-(3-nitrophenyl)-1H-pyrazol-4-yl)methyl)-L-glycin
     RDKit          3D

 56 59  0  0  0  0  0  0  0  0999 V2000
   -1.6465    4.4229   -2.3673 C   0  0  0  0  0  0  0  0  0  0  0  0
   -1.9215    3.0019   -1.8922 N   0  0  0  0  0  0  0  0  0  0  0  0
   -1.3837    2.6962   -0.5501 C   0  0  0  0  0  0  0  0  0  0  0  0
   -2.7571    5.3678   -1.8416 C   0  0  0  0  0  0  0  0  0  0  0  0
   -3.7314    4.6773   -1.3925 O   0  0  0  0  0  0  0  0  0  0  0  0
   -2.5316    6.5938   -1.8881 O   0  0  0  0  0  0  0  0  0  0  0  0
   -1.9502    1.4285   -0.0266 C   0  0  0  0  0  0  0  0  0  0  0  0
   -3.2625    1.1951    0.3439 C   0  0  0  0  0  0  0  0  0  0  0  0
   -1.2844    0.2049    0.2507 C   0  0  0  0  0  0  0  0  0  0  0  0
   -3.3353   -0.0929    0.8214 N   0  0  0  0  0  0  0  0  0  0  0  0
   -2.1259   -0.6975    0.7654 N   0  0  0  0  0  0  0  0  0  0  0  0
    0.1226   -0.1265    0.0613 C   0  0  0  0  0  0  0  0  0  0  0  0
   -4.4713   -0.7867    1.3278 C   0  0  0  0  0  0  0  0  0  0  0  0
    0.7212   -0.0229   -1.1977 C   0  0  0  0  0  0  0  0  0  0  0  0
    0.8890   -0.5627    1.1487 C   0  0  0  0  0  0  0  0  0  0  0  0
   -4.3241   -2.1148    1.7665 C   0  0  0  0  0  0  0  0  0  0  0  0
   -5.7302   -0.1735    1.3987 C   0  0  0  0  0  0  0  0  0  0  0  0
    2.0744   -0.3346   -1.3553 C   0  0  0  0  0  0  0  0  0  0  0  0
    2.2441   -0.8744    0.9869 C   0  0  0  0  0  0  0  0  0  0  0  0
   -5.4166   -2.8262    2.2694 C   0  0  0  0  0  0  0  0  0  0  0  0
   -6.8222   -0.8991    1.9067 C   0  0  0  0  0  0  0  0  0  0  0  0
    2.8421   -0.7603   -0.2677 C   0  0  0  0  0  0  0  0  0  0  0  0
   -6.6699   -2.2222    2.3417 C   0  0  0  0  0  0  0  0  0  0  0  0
   -8.1455   -0.2640    1.9804 N   0  0  0  0  0  0  0  0  0  0  0  0
    4.1468   -1.0327   -0.5678 O   0  0  0  0  0  0  0  0  0  0  0  0
   -9.0978   -0.9579    2.3624 O   0  0  0  0  0  0  0  0  0  0  0  0
   -8.2288    0.9276    1.6532 O   0  0  0  0  0  0  0  0  0  0  0  0
    4.9652   -1.5397    0.4835 C   0  0  0  0  0  0  0  0  0  0  0  0
    6.3355   -1.8127   -0.0874 C   0  0  0  0  0  0  0  0  0  0  0  0
    6.6506   -3.0769   -0.6075 C   0  0  0  0  0  0  0  0  0  0  0  0
    7.2979   -0.7934   -0.1432 C   0  0  0  0  0  0  0  0  0  0  0  0
    7.9127   -3.3237   -1.1527 C   0  0  0  0  0  0  0  0  0  0  0  0
    8.5599   -1.0406   -0.6885 C   0  0  0  0  0  0  0  0  0  0  0  0
    8.8623   -2.3051   -1.1888 C   0  0  0  0  0  0  0  0  0  0  0  0
   10.4165   -2.6089   -1.8614 Cl  0  0  0  0  0  0  0  0  0  0  0  0
   -1.6844    4.3910   -3.4597 H   0  0  0  0  0  0  0  0  0  0  0  0
   -0.6460    4.7085   -2.0313 H   0  0  0  0  0  0  0  0  0  0  0  0
   -1.7514    2.2915   -2.6020 H   0  0  0  0  0  0  0  0  0  0  0  0
   -2.9578    3.0785   -1.7545 H   0  0  0  0  0  0  0  0  0  0  0  0
   -1.6421    3.5254    0.1182 H   0  0  0  0  0  0  0  0  0  0  0  0
   -0.2947    2.6590   -0.6439 H   0  0  0  0  0  0  0  0  0  0  0  0
   -4.1212    1.8531    0.3218 H   0  0  0  0  0  0  0  0  0  0  0  0
    0.1458    0.2710   -2.0702 H   0  0  0  0  0  0  0  0  0  0  0  0
    0.4312   -0.6677    2.1311 H   0  0  0  0  0  0  0  0  0  0  0  0
   -3.3564   -2.6146    1.7222 H   0  0  0  0  0  0  0  0  0  0  0  0
   -5.8821    0.8503    1.0678 H   0  0  0  0  0  0  0  0  0  0  0  0
    2.5360   -0.2604   -2.3379 H   0  0  0  0  0  0  0  0  0  0  0  0
    2.7955   -1.2064    1.8605 H   0  0  0  0  0  0  0  0  0  0  0  0
   -5.2857   -3.8530    2.6050 H   0  0  0  0  0  0  0  0  0  0  0  0
   -7.5105   -2.7898    2.7366 H   0  0  0  0  0  0  0  0  0  0  0  0
    4.5472   -2.4703    0.8878 H   0  0  0  0  0  0  0  0  0  0  0  0
    5.0502   -0.8066    1.2956 H   0  0  0  0  0  0  0  0  0  0  0  0
    5.9118   -3.8755   -0.5964 H   0  0  0  0  0  0  0  0  0  0  0  0
    7.0669    0.2012    0.2324 H   0  0  0  0  0  0  0  0  0  0  0  0
    8.1455   -4.3075   -1.5508 H   0  0  0  0  0  0  0  0  0  0  0  0
    9.2976   -0.2437   -0.7245 H   0  0  0  0  0  0  0  0  0  0  0  0
  1  2  1  0
  2  3  1  0
  1  4  1  0
  4  5  2  0
  4  6  1  0
  3  7  1  0
  7  8  2  0
  9  7  1  0
  8 10  1  0
 11  9  2  0
  9 12  1  0
 10 13  1  0
 10 11  1  0
 12 14  2  0
 15 12  1  0
 13 16  2  0
 17 13  1  0
 14 18  1  0
 19 15  2  0
 16 20  1  0
 21 17  2  0
 18 22  2  0
 22 19  1  0
 20 23  2  0
 23 21  1  0
 21 24  1  0
 22 25  1  0
 24 26  1  0
 24 27  2  0
 25 28  1  0
 28 29  1  0
 29 30  2  0
 31 29  1  0
 30 32  1  0
 33 31  2  0
 32 34  2  0
 34 33  1  0
 34 35  1  0
  1 36  1  0
  1 37  1  0
  2 38  1  0
  2 39  1  0
  3 40  1  0
  3 41  1  0
  8 42  1  0
 14 43  1  0
 15 44  1  0
 16 45  1  0
 17 46  1  0
 18 47  1  0
 19 48  1  0
 20 49  1  0
 23 50  1  0
 28 51  1  0
 28 52  1  0
 30 53  1  0
 31 54  1  0
 32 55  1  0
 33 56  1  0
M  CHG  4   2   1   6  -1  24   1  26  -1
M  END
>  <SMILES_raw>  (126) 
O=C(O)CNCC1=CN(C2=CC=CC([N+]([O-])=O)=C2)N=C1C3=CC=C(OCC4=CC=C(Cl)C=C4)C=C3

>  <Protonation_Method>  (126) 
MolScrub

>  <Target_pH>  (126) 
7.4

$$$$
N-((3-(4-(benzyloxy)phenyl)-1-(4-bromophenyl)-1H-pyrazol-4-yl)methyl)-L-alanin
     RDKit          3D

 57 60  0  0  0  0  0  0  0  0999 V2000
   -2.5595    3.9662   -0.7619 C   0  0  2  0  0  0  0  0  0  0  0  0
   -2.6674    2.4631   -0.4861 N   0  0  0  0  0  0  0  0  0  0  0  0
   -1.6790    1.6002   -1.1399 C   0  0  0  0  0  0  0  0  0  0  0  0
   -2.6196    4.7300    0.5944 C   0  0  0  0  0  0  0  0  0  0  0  0
   -3.6688    4.3630   -1.7153 C   0  0  0  0  0  0  0  0  0  0  0  0
   -2.7385    5.9718    0.5595 O   0  0  0  0  0  0  0  0  0  0  0  0
   -2.5373    3.8896    1.5511 O   0  0  0  0  0  0  0  0  0  0  0  0
   -1.9346    0.1678   -0.8532 C   0  0  0  0  0  0  0  0  0  0  0  0
   -3.0081   -0.5972   -1.2732 C   0  0  0  0  0  0  0  0  0  0  0  0
   -1.1491   -0.7283   -0.0771 C   0  0  0  0  0  0  0  0  0  0  0  0
   -2.8477   -1.8611   -0.7460 N   0  0  0  0  0  0  0  0  0  0  0  0
   -1.7213   -1.9340   -0.0039 N   0  0  0  0  0  0  0  0  0  0  0  0
    0.1094   -0.4661    0.6099 C   0  0  0  0  0  0  0  0  0  0  0  0
   -3.6955   -2.9944   -0.9003 C   0  0  0  0  0  0  0  0  0  0  0  0
    1.2399   -0.0475   -0.1018 C   0  0  0  0  0  0  0  0  0  0  0  0
    0.1997   -0.6434    1.9935 C   0  0  0  0  0  0  0  0  0  0  0  0
   -4.8650   -2.9326   -1.6717 C   0  0  0  0  0  0  0  0  0  0  0  0
   -3.3522   -4.2004   -0.2665 C   0  0  0  0  0  0  0  0  0  0  0  0
    2.4400    0.2202    0.5681 C   0  0  0  0  0  0  0  0  0  0  0  0
    1.4001   -0.3787    2.6574 C   0  0  0  0  0  0  0  0  0  0  0  0
   -5.6772   -4.0648   -1.8043 C   0  0  0  0  0  0  0  0  0  0  0  0
   -4.1667   -5.3281   -0.4017 C   0  0  0  0  0  0  0  0  0  0  0  0
    2.5189    0.0698    1.9525 C   0  0  0  0  0  0  0  0  0  0  0  0
   -5.3250   -5.2549   -1.1701 C   0  0  0  0  0  0  0  0  0  0  0  0
    3.6348    0.2779    2.7141 O   0  0  0  0  0  0  0  0  0  0  0  0
   -6.4276   -6.7784   -1.3556 Br  0  0  0  0  0  0  0  0  0  0  0  0
    4.6267    1.1764    2.2060 C   0  0  0  0  0  0  0  0  0  0  0  0
    5.6981    0.4926    1.3849 C   0  0  0  0  0  0  0  0  0  0  0  0
    6.0444   -0.8491    1.6009 C   0  0  0  0  0  0  0  0  0  0  0  0
    6.4055    1.2251    0.4191 C   0  0  0  0  0  0  0  0  0  0  0  0
    7.0543   -1.4522    0.8486 C   0  0  0  0  0  0  0  0  0  0  0  0
    7.4157    0.6207   -0.3317 C   0  0  0  0  0  0  0  0  0  0  0  0
    7.7376   -0.7182   -0.1188 C   0  0  0  0  0  0  0  0  0  0  0  0
   -1.5732    4.1428   -1.2067 H   0  0  0  0  0  0  0  0  0  0  0  0
   -2.4953    2.4718    0.5546 H   0  0  0  0  0  0  0  0  0  0  0  0
   -3.6357    2.1432   -0.5494 H   0  0  0  0  0  0  0  0  0  0  0  0
   -0.6916    1.9277   -0.8029 H   0  0  0  0  0  0  0  0  0  0  0  0
   -1.7542    1.7819   -2.2177 H   0  0  0  0  0  0  0  0  0  0  0  0
   -3.5770    5.4163   -2.0013 H   0  0  0  0  0  0  0  0  0  0  0  0
   -3.6368    3.7641   -2.6314 H   0  0  0  0  0  0  0  0  0  0  0  0
   -4.6547    4.2332   -1.2552 H   0  0  0  0  0  0  0  0  0  0  0  0
   -3.8562   -0.3435   -1.8909 H   0  0  0  0  0  0  0  0  0  0  0  0
    1.2123    0.0464   -1.1842 H   0  0  0  0  0  0  0  0  0  0  0  0
   -0.6596   -0.9915    2.5628 H   0  0  0  0  0  0  0  0  0  0  0  0
   -5.1776   -2.0288   -2.1840 H   0  0  0  0  0  0  0  0  0  0  0  0
   -2.4503   -4.2793    0.3395 H   0  0  0  0  0  0  0  0  0  0  0  0
    3.3034    0.5131   -0.0203 H   0  0  0  0  0  0  0  0  0  0  0  0
    1.4613   -0.5203    3.7339 H   0  0  0  0  0  0  0  0  0  0  0  0
   -6.5824   -4.0087   -2.4044 H   0  0  0  0  0  0  0  0  0  0  0  0
   -3.8864   -6.2529    0.0963 H   0  0  0  0  0  0  0  0  0  0  0  0
    4.1610    2.0056    1.6573 H   0  0  0  0  0  0  0  0  0  0  0  0
    5.1183    1.6223    3.0792 H   0  0  0  0  0  0  0  0  0  0  0  0
    5.5246   -1.4351    2.3566 H   0  0  0  0  0  0  0  0  0  0  0  0
    6.1751    2.2744    0.2465 H   0  0  0  0  0  0  0  0  0  0  0  0
    7.3089   -2.4948    1.0216 H   0  0  0  0  0  0  0  0  0  0  0  0
    7.9559    1.1960   -1.0795 H   0  0  0  0  0  0  0  0  0  0  0  0
    8.5255   -1.1886   -0.7016 H   0  0  0  0  0  0  0  0  0  0  0  0
  1  2  1  0
  2  3  1  0
  1  4  1  0
  5  1  1  0
  4  6  2  0
  4  7  1  0
  3  8  1  0
  8  9  2  0
 10  8  1  0
  9 11  1  0
 12 10  2  0
 10 13  1  0
 11 14  1  0
 11 12  1  0
 13 15  2  0
 16 13  1  0
 14 17  2  0
 18 14  1  0
 15 19  1  0
 20 16  2  0
 17 21  1  0
 22 18  2  0
 19 23  2  0
 23 20  1  0
 21 24  2  0
 24 22  1  0
 23 25  1  0
 24 26  1  0
 25 27  1  0
 27 28  1  0
 28 29  2  0
 30 28  1  0
 29 31  1  0
 32 30  2  0
 31 33  2  0
 33 32  1  0
  1 34  1  6
  2 35  1  0
  2 36  1  0
  3 37  1  0
  3 38  1  0
  5 39  1  0
  5 40  1  0
  5 41  1  0
  9 42  1  0
 15 43  1  0
 16 44  1  0
 17 45  1  0
 18 46  1  0
 19 47  1  0
 20 48  1  0
 21 49  1  0
 22 50  1  0
 27 51  1  0
 27 52  1  0
 29 53  1  0
 30 54  1  0
 31 55  1  0
 32 56  1  0
 33 57  1  0
M  CHG  2   2   1   7  -1
M  END
>  <SMILES_raw>  (127) 
C[C@@H](C(O)=O)NCC1=CN(C2=CC=C(Br)C=C2)N=C1C3=CC=C(OCC4=CC=CC=C4)C=C3

>  <Protonation_Method>  (127) 
MolScrub

>  <Target_pH>  (127) 
7.4

$$$$
N-((3-(4-(benzyloxy)phenyl)-1-(4-bromophenyl)-1H-pyrazol-4-yl)methyl)-L-aspartic acid
     RDKit          3D

 59 62  0  0  0  0  0  0  0  0999 V2000
   -3.5060    2.2919   -1.0552 C   0  0  2  0  0  0  0  0  0  0  0  0
   -2.1944    2.2615   -0.2793 N   0  0  0  0  0  0  0  0  0  0  0  0
   -1.9864    1.3118    0.7958 C   0  0  0  0  0  0  0  0  0  0  0  0
   -3.2231    2.8111   -2.5044 C   0  0  0  0  0  0  0  0  0  0  0  0
   -4.6083    2.9666   -0.2540 C   0  0  0  0  0  0  0  0  0  0  0  0
   -4.2007    3.1109   -3.2283 O   0  0  0  0  0  0  0  0  0  0  0  0
   -1.9699    2.7636   -2.7595 O   0  0  0  0  0  0  0  0  0  0  0  0
   -4.2059    4.2327    0.4905 C   0  0  0  0  0  0  0  0  0  0  0  0
   -2.9531    4.3660    0.6663 O   0  0  0  0  0  0  0  0  0  0  0  0
   -5.1521    4.9260    0.9417 O   0  0  0  0  0  0  0  0  0  0  0  0
   -1.9725   -0.1145    0.3843 C   0  0  0  0  0  0  0  0  0  0  0  0
   -3.0006   -1.0324    0.4839 C   0  0  0  0  0  0  0  0  0  0  0  0
   -0.8975   -0.8570   -0.1718 C   0  0  0  0  0  0  0  0  0  0  0  0
   -2.5279   -2.2355    0.0129 N   0  0  0  0  0  0  0  0  0  0  0  0
   -1.2225   -2.1444   -0.3344 N   0  0  0  0  0  0  0  0  0  0  0  0
    0.4309   -0.3745   -0.5163 C   0  0  0  0  0  0  0  0  0  0  0  0
   -3.2279   -3.4707   -0.1006 C   0  0  0  0  0  0  0  0  0  0  0  0
    1.5331   -0.7347    0.2688 C   0  0  0  0  0  0  0  0  0  0  0  0
    0.6133    0.4513   -1.6322 C   0  0  0  0  0  0  0  0  0  0  0  0
   -4.5809   -3.5773    0.2532 C   0  0  0  0  0  0  0  0  0  0  0  0
   -2.5506   -4.6043   -0.5801 C   0  0  0  0  0  0  0  0  0  0  0  0
    2.8044   -0.2447   -0.0401 C   0  0  0  0  0  0  0  0  0  0  0  0
    1.8849    0.9390   -1.9400 C   0  0  0  0  0  0  0  0  0  0  0  0
   -5.2419   -4.8050    0.1337 C   0  0  0  0  0  0  0  0  0  0  0  0
   -3.2147   -5.8284   -0.6979 C   0  0  0  0  0  0  0  0  0  0  0  0
    2.9693    0.6112   -1.1296 C   0  0  0  0  0  0  0  0  0  0  0  0
   -4.5567   -5.9229   -0.3390 C   0  0  0  0  0  0  0  0  0  0  0  0
    4.1963    1.0985   -1.4872 O   0  0  0  0  0  0  0  0  0  0  0  0
   -5.4562   -7.5781   -0.4962 Br  0  0  0  0  0  0  0  0  0  0  0  0
    4.7636    1.9526   -0.4829 C   0  0  0  0  0  0  0  0  0  0  0  0
    5.8925    1.2759    0.2628 C   0  0  0  0  0  0  0  0  0  0  0  0
    6.7761    0.4066   -0.3936 C   0  0  0  0  0  0  0  0  0  0  0  0
    6.1005    1.5514    1.6224 C   0  0  0  0  0  0  0  0  0  0  0  0
    7.8294   -0.1920    0.2995 C   0  0  0  0  0  0  0  0  0  0  0  0
    7.1549    0.9524    2.3144 C   0  0  0  0  0  0  0  0  0  0  0  0
    8.0177    0.0800    1.6533 C   0  0  0  0  0  0  0  0  0  0  0  0
   -3.7857    1.2430   -1.2132 H   0  0  0  0  0  0  0  0  0  0  0  0
   -2.1369    3.2390    0.1109 H   0  0  0  0  0  0  0  0  0  0  0  0
   -1.4848    2.2793   -1.0381 H   0  0  0  0  0  0  0  0  0  0  0  0
   -1.0325    1.5776    1.2650 H   0  0  0  0  0  0  0  0  0  0  0  0
   -2.7683    1.4872    1.5435 H   0  0  0  0  0  0  0  0  0  0  0  0
   -5.4572    3.2029   -0.9067 H   0  0  0  0  0  0  0  0  0  0  0  0
   -4.9805    2.2650    0.5046 H   0  0  0  0  0  0  0  0  0  0  0  0
   -4.0108   -0.9109    0.8448 H   0  0  0  0  0  0  0  0  0  0  0  0
    1.4065   -1.4074    1.1136 H   0  0  0  0  0  0  0  0  0  0  0  0
   -0.2222    0.7109   -2.2823 H   0  0  0  0  0  0  0  0  0  0  0  0
   -5.1527   -2.7291    0.6172 H   0  0  0  0  0  0  0  0  0  0  0  0
   -1.5018   -4.5477   -0.8695 H   0  0  0  0  0  0  0  0  0  0  0  0
    3.6568   -0.5508    0.5585 H   0  0  0  0  0  0  0  0  0  0  0  0
    2.0198    1.5753   -2.8118 H   0  0  0  0  0  0  0  0  0  0  0  0
   -6.2916   -4.8751    0.4080 H   0  0  0  0  0  0  0  0  0  0  0  0
   -2.6750   -6.6940   -1.0725 H   0  0  0  0  0  0  0  0  0  0  0  0
    5.1772    2.8256   -1.0014 H   0  0  0  0  0  0  0  0  0  0  0  0
    3.9996    2.3309    0.2100 H   0  0  0  0  0  0  0  0  0  0  0  0
    6.6405    0.1869   -1.4514 H   0  0  0  0  0  0  0  0  0  0  0  0
    5.4391    2.2342    2.1522 H   0  0  0  0  0  0  0  0  0  0  0  0
    8.5015   -0.8700   -0.2200 H   0  0  0  0  0  0  0  0  0  0  0  0
    7.3039    1.1688    3.3692 H   0  0  0  0  0  0  0  0  0  0  0  0
    8.8382   -0.3863    2.1920 H   0  0  0  0  0  0  0  0  0  0  0  0
  1  2  1  0
  2  3  1  0
  1  4  1  0
  5  1  1  0
  4  6  2  0
  4  7  1  0
  5  8  1  0
  8  9  2  0
  8 10  1  0
  3 11  1  0
 11 12  2  0
 13 11  1  0
 12 14  1  0
 15 13  2  0
 13 16  1  0
 14 17  1  0
 14 15  1  0
 16 18  2  0
 19 16  1  0
 17 20  2  0
 21 17  1  0
 18 22  1  0
 23 19  2  0
 20 24  1  0
 25 21  2  0
 22 26  2  0
 26 23  1  0
 24 27  2  0
 27 25  1  0
 26 28  1  0
 27 29  1  0
 28 30  1  0
 30 31  1  0
 31 32  2  0
 33 31  1  0
 32 34  1  0
 35 33  2  0
 34 36  2  0
 36 35  1  0
  1 37  1  6
  2 38  1  0
  2 39  1  0
  3 40  1  0
  3 41  1  0
  5 42  1  0
  5 43  1  0
 12 44  1  0
 18 45  1  0
 19 46  1  0
 20 47  1  0
 21 48  1  0
 22 49  1  0
 23 50  1  0
 24 51  1  0
 25 52  1  0
 30 53  1  0
 30 54  1  0
 32 55  1  0
 33 56  1  0
 34 57  1  0
 35 58  1  0
 36 59  1  0
M  CHG  3   2   1   7  -1  10  -1
M  END
>  <SMILES_raw>  (128) 
O=C(O)C[C@@H](C(O)=O)NCC1=CN(C2=CC=C(Br)C=C2)N=C1C3=CC=C(OCC4=CC=CC=C4)C=C3

>  <Protonation_Method>  (128) 
MolScrub

>  <Target_pH>  (128) 
7.4

$$$$
N-((3-(4-(benzyloxy)phenyl)-1-(4-bromophenyl)-1H-pyrazol-4-yl)methyl)-L-isoleucin
     RDKit          3D

 66 69  0  0  0  0  0  0  0  0999 V2000
   -2.4193   -2.2286   -1.3774 C   0  0  2  0  0  0  0  0  0  0  0  0
   -1.3563   -1.1828   -1.7854 N   0  0  0  0  0  0  0  0  0  0  0  0
   -1.8294    0.0864   -2.4032 C   0  0  0  0  0  0  0  0  0  0  0  0
   -3.2494   -2.6370   -2.6402 C   0  0  0  0  0  0  0  0  0  0  0  0
   -3.0355   -1.8965   -0.0052 C   0  0  2  0  0  0  0  0  0  0  0  0
   -4.4570   -2.9199   -2.4929 O   0  0  0  0  0  0  0  0  0  0  0  0
   -2.5201   -2.5254   -3.6808 O   0  0  0  0  0  0  0  0  0  0  0  0
   -3.6185   -3.1781    0.6389 C   0  0  0  0  0  0  0  0  0  0  0  0
   -4.0882   -0.7859   -0.0452 C   0  0  0  0  0  0  0  0  0  0  0  0
   -3.7763   -3.0644    2.1504 C   0  0  0  0  0  0  0  0  0  0  0  0
   -1.6352    1.3207   -1.5925 C   0  0  0  0  0  0  0  0  0  0  0  0
   -2.5333    2.3670   -1.4826 C   0  0  0  0  0  0  0  0  0  0  0  0
   -0.5427    1.7249   -0.7796 C   0  0  0  0  0  0  0  0  0  0  0  0
   -2.0110    3.2818   -0.5979 N   0  0  0  0  0  0  0  0  0  0  0  0
   -0.8000    2.8774   -0.1531 N   0  0  0  0  0  0  0  0  0  0  0  0
    0.7141    1.0253   -0.5439 C   0  0  0  0  0  0  0  0  0  0  0  0
   -2.6018    4.4901   -0.1330 C   0  0  0  0  0  0  0  0  0  0  0  0
    1.0914    0.6905    0.7606 C   0  0  0  0  0  0  0  0  0  0  0  0
    1.5359    0.6494   -1.6101 C   0  0  0  0  0  0  0  0  0  0  0  0
   -3.8877    4.8764   -0.5434 C   0  0  0  0  0  0  0  0  0  0  0  0
   -1.8893    5.3056    0.7621 C   0  0  0  0  0  0  0  0  0  0  0  0
    2.2696   -0.0259    1.0021 C   0  0  0  0  0  0  0  0  0  0  0  0
    2.7171   -0.0569   -1.3652 C   0  0  0  0  0  0  0  0  0  0  0  0
   -4.4460    6.0676   -0.0652 C   0  0  0  0  0  0  0  0  0  0  0  0
   -2.4555    6.4916    1.2395 C   0  0  0  0  0  0  0  0  0  0  0  0
    3.0879   -0.4042   -0.0606 C   0  0  0  0  0  0  0  0  0  0  0  0
   -3.7320    6.8652    0.8255 C   0  0  0  0  0  0  0  0  0  0  0  0
    4.2695   -1.0838    0.0336 O   0  0  0  0  0  0  0  0  0  0  0  0
   -4.4957    8.4728    1.4660 Br  0  0  0  0  0  0  0  0  0  0  0  0
    4.6942   -1.4769    1.3409 C   0  0  0  0  0  0  0  0  0  0  0  0
    6.0504   -2.1379    1.2542 C   0  0  0  0  0  0  0  0  0  0  0  0
    7.0958   -1.7215    2.0925 C   0  0  0  0  0  0  0  0  0  0  0  0
    6.2753   -3.2012    0.3689 C   0  0  0  0  0  0  0  0  0  0  0  0
    8.3435   -2.3465    2.0355 C   0  0  0  0  0  0  0  0  0  0  0  0
    7.5232   -3.8238    0.3121 C   0  0  0  0  0  0  0  0  0  0  0  0
    8.5549   -3.3965    1.1462 C   0  0  0  0  0  0  0  0  0  0  0  0
   -1.7862   -3.1141   -1.2135 H   0  0  0  0  0  0  0  0  0  0  0  0
   -0.5926   -1.0998   -1.1140 H   0  0  0  0  0  0  0  0  0  0  0  0
   -0.9943   -1.6835   -2.6203 H   0  0  0  0  0  0  0  0  0  0  0  0
   -1.2809    0.1975   -3.3448 H   0  0  0  0  0  0  0  0  0  0  0  0
   -2.8871   -0.0319   -2.6450 H   0  0  0  0  0  0  0  0  0  0  0  0
   -2.2216   -1.5496    0.6472 H   0  0  0  0  0  0  0  0  0  0  0  0
   -4.5857   -3.4324    0.1929 H   0  0  0  0  0  0  0  0  0  0  0  0
   -2.9464   -4.0233    0.4422 H   0  0  0  0  0  0  0  0  0  0  0  0
   -4.6648   -0.7392    0.8838 H   0  0  0  0  0  0  0  0  0  0  0  0
   -3.6087    0.1891   -0.1553 H   0  0  0  0  0  0  0  0  0  0  0  0
   -4.7967   -0.9153   -0.8699 H   0  0  0  0  0  0  0  0  0  0  0  0
   -4.0971   -4.0242    2.5685 H   0  0  0  0  0  0  0  0  0  0  0  0
   -2.8281   -2.7916    2.6215 H   0  0  0  0  0  0  0  0  0  0  0  0
   -4.5250   -2.3151    2.4275 H   0  0  0  0  0  0  0  0  0  0  0  0
   -3.4987    2.5044   -1.9458 H   0  0  0  0  0  0  0  0  0  0  0  0
    0.4719    0.9994    1.6020 H   0  0  0  0  0  0  0  0  0  0  0  0
    1.2905    0.9233   -2.6327 H   0  0  0  0  0  0  0  0  0  0  0  0
   -4.4844    4.2785   -1.2269 H   0  0  0  0  0  0  0  0  0  0  0  0
   -0.8882    5.0317    1.0973 H   0  0  0  0  0  0  0  0  0  0  0  0
    2.5235   -0.2515    2.0328 H   0  0  0  0  0  0  0  0  0  0  0  0
    3.3579   -0.3396   -2.1974 H   0  0  0  0  0  0  0  0  0  0  0  0
   -5.4483    6.3533   -0.3815 H   0  0  0  0  0  0  0  0  0  0  0  0
   -1.8941    7.1068    1.9371 H   0  0  0  0  0  0  0  0  0  0  0  0
    3.9843   -2.1997    1.7664 H   0  0  0  0  0  0  0  0  0  0  0  0
    4.7607   -0.5964    1.9947 H   0  0  0  0  0  0  0  0  0  0  0  0
    6.9485   -0.9011    2.7898 H   0  0  0  0  0  0  0  0  0  0  0  0
    5.4804   -3.5410   -0.2921 H   0  0  0  0  0  0  0  0  0  0  0  0
    9.1509   -2.0132    2.6855 H   0  0  0  0  0  0  0  0  0  0  0  0
    7.6916   -4.6394   -0.3875 H   0  0  0  0  0  0  0  0  0  0  0  0
    9.5261   -3.8812    1.1021 H   0  0  0  0  0  0  0  0  0  0  0  0
  1  2  1  0
  2  3  1  0
  1  4  1  0
  5  1  1  0
  4  6  2  0
  4  7  1  0
  8  5  1  0
  5  9  1  0
 10  8  1  0
  3 11  1  0
 11 12  2  0
 13 11  1  0
 12 14  1  0
 15 13  2  0
 13 16  1  0
 14 17  1  0
 14 15  1  0
 16 18  2  0
 19 16  1  0
 17 20  2  0
 21 17  1  0
 18 22  1  0
 23 19  2  0
 20 24  1  0
 25 21  2  0
 22 26  2  0
 26 23  1  0
 24 27  2  0
 27 25  1  0
 26 28  1  0
 27 29  1  0
 28 30  1  0
 30 31  1  0
 31 32  2  0
 33 31  1  0
 32 34  1  0
 35 33  2  0
 34 36  2  0
 36 35  1  0
  1 37  1  1
  2 38  1  0
  2 39  1  0
  3 40  1  0
  3 41  1  0
  5 42  1  1
  8 43  1  0
  8 44  1  0
  9 45  1  0
  9 46  1  0
  9 47  1  0
 10 48  1  0
 10 49  1  0
 10 50  1  0
 12 51  1  0
 18 52  1  0
 19 53  1  0
 20 54  1  0
 21 55  1  0
 22 56  1  0
 23 57  1  0
 24 58  1  0
 25 59  1  0
 30 60  1  0
 30 61  1  0
 32 62  1  0
 33 63  1  0
 34 64  1  0
 35 65  1  0
 36 66  1  0
M  CHG  2   2   1   7  -1
M  END
>  <SMILES_raw>  (129) 
CC[C@H](C)[C@@H](C(O)=O)NCC1=CN(C2=CC=C(Br)C=C2)N=C1C3=CC=C(OCC4=CC=CC=C4)C=C3

>  <Protonation_Method>  (129) 
MolScrub

>  <Target_pH>  (129) 
7.4

$$$$
N-((3-(4-(benzyloxy)phenyl)-1-(4-bromophenyl)-1H-pyrazol-4-yl)methyl)-L-leucin
     RDKit          3D

 66 69  0  0  0  0  0  0  0  0999 V2000
   -3.2229   -2.4804   -0.9121 C   0  0  2  0  0  0  0  0  0  0  0  0
   -2.6455   -1.1597   -0.4022 N   0  0  0  0  0  0  0  0  0  0  0  0
   -1.7217   -0.4863   -1.3420 C   0  0  0  0  0  0  0  0  0  0  0  0
   -4.5118   -2.1912   -1.7386 C   0  0  0  0  0  0  0  0  0  0  0  0
   -3.3894   -3.4727    0.2438 C   0  0  0  0  0  0  0  0  0  0  0  0
   -4.8338   -0.9619   -1.6157 O   0  0  0  0  0  0  0  0  0  0  0  0
   -4.9964   -3.1348   -2.3962 O   0  0  0  0  0  0  0  0  0  0  0  0
   -4.4489   -3.2453    1.3472 C   0  0  0  0  0  0  0  0  0  0  0  0
   -4.2756   -1.9519    2.1390 C   0  0  0  0  0  0  0  0  0  0  0  0
   -5.8892   -3.3770    0.8532 C   0  0  0  0  0  0  0  0  0  0  0  0
   -1.5043    0.9252   -0.9414 C   0  0  0  0  0  0  0  0  0  0  0  0
   -2.4364    1.9459   -0.9712 C   0  0  0  0  0  0  0  0  0  0  0  0
   -0.3143    1.5500   -0.4828 C   0  0  0  0  0  0  0  0  0  0  0  0
   -1.8048    3.0976   -0.5622 N   0  0  0  0  0  0  0  0  0  0  0  0
   -0.5055    2.8553   -0.2643 N   0  0  0  0  0  0  0  0  0  0  0  0
    0.9961    0.9487   -0.2670 C   0  0  0  0  0  0  0  0  0  0  0  0
   -2.3536    4.4048   -0.4378 C   0  0  0  0  0  0  0  0  0  0  0  0
    1.1557   -0.1265    0.6121 C   0  0  0  0  0  0  0  0  0  0  0  0
    2.1134    1.4476   -0.9466 C   0  0  0  0  0  0  0  0  0  0  0  0
   -3.6945    4.6648   -0.7571 C   0  0  0  0  0  0  0  0  0  0  0  0
   -1.5364    5.4551    0.0125 C   0  0  0  0  0  0  0  0  0  0  0  0
    2.4152   -0.7069    0.7837 C   0  0  0  0  0  0  0  0  0  0  0  0
    3.3738    0.8637   -0.7717 C   0  0  0  0  0  0  0  0  0  0  0  0
   -4.2066    5.9608   -0.6271 C   0  0  0  0  0  0  0  0  0  0  0  0
   -2.0531    6.7475    0.1413 C   0  0  0  0  0  0  0  0  0  0  0  0
    3.5277   -0.2207    0.0912 C   0  0  0  0  0  0  0  0  0  0  0  0
   -3.3849    6.9942   -0.1804 C   0  0  0  0  0  0  0  0  0  0  0  0
    4.6918   -0.8873    0.3507 O   0  0  0  0  0  0  0  0  0  0  0  0
   -4.0836    8.7417   -0.0086 Br  0  0  0  0  0  0  0  0  0  0  0  0
    5.8675   -0.4307   -0.3142 C   0  0  0  0  0  0  0  0  0  0  0  0
    7.0208   -1.2996    0.1220 C   0  0  0  0  0  0  0  0  0  0  0  0
    7.6228   -1.1002    1.3730 C   0  0  0  0  0  0  0  0  0  0  0  0
    7.4897   -2.3339   -0.6997 C   0  0  0  0  0  0  0  0  0  0  0  0
    8.6853   -1.9062    1.7843 C   0  0  0  0  0  0  0  0  0  0  0  0
    8.5522   -3.1396   -0.2860 C   0  0  0  0  0  0  0  0  0  0  0  0
    9.1510   -2.9237    0.9539 C   0  0  0  0  0  0  0  0  0  0  0  0
   -2.4690   -2.8870   -1.5986 H   0  0  0  0  0  0  0  0  0  0  0  0
   -3.5176   -0.5799   -0.4450 H   0  0  0  0  0  0  0  0  0  0  0  0
   -2.3206   -1.1733    0.5622 H   0  0  0  0  0  0  0  0  0  0  0  0
   -0.7958   -1.0679   -1.3494 H   0  0  0  0  0  0  0  0  0  0  0  0
   -2.1625   -0.5274   -2.3446 H   0  0  0  0  0  0  0  0  0  0  0  0
   -3.5916   -4.4586   -0.1983 H   0  0  0  0  0  0  0  0  0  0  0  0
   -2.4135   -3.5760    0.7397 H   0  0  0  0  0  0  0  0  0  0  0  0
   -4.2997   -4.0661    2.0636 H   0  0  0  0  0  0  0  0  0  0  0  0
   -4.9345   -1.9512    3.0146 H   0  0  0  0  0  0  0  0  0  0  0  0
   -3.2488   -1.8489    2.5044 H   0  0  0  0  0  0  0  0  0  0  0  0
   -4.5302   -1.0700    1.5442 H   0  0  0  0  0  0  0  0  0  0  0  0
   -6.0154   -4.2718    0.2357 H   0  0  0  0  0  0  0  0  0  0  0  0
   -6.5738   -3.4658    1.7045 H   0  0  0  0  0  0  0  0  0  0  0  0
   -6.2092   -2.5052    0.2769 H   0  0  0  0  0  0  0  0  0  0  0  0
   -3.4764    1.9331   -1.2693 H   0  0  0  0  0  0  0  0  0  0  0  0
    0.3190   -0.5087    1.1885 H   0  0  0  0  0  0  0  0  0  0  0  0
    2.0084    2.2994   -1.6167 H   0  0  0  0  0  0  0  0  0  0  0  0
   -4.3693    3.8909   -1.1114 H   0  0  0  0  0  0  0  0  0  0  0  0
   -0.4921    5.2832    0.2688 H   0  0  0  0  0  0  0  0  0  0  0  0
    2.5380   -1.5405    1.4719 H   0  0  0  0  0  0  0  0  0  0  0  0
    4.2085    1.2855   -1.3217 H   0  0  0  0  0  0  0  0  0  0  0  0
   -5.2471    6.1523   -0.8790 H   0  0  0  0  0  0  0  0  0  0  0  0
   -1.4083    7.5495    0.4913 H   0  0  0  0  0  0  0  0  0  0  0  0
    6.0856    0.6109   -0.0466 H   0  0  0  0  0  0  0  0  0  0  0  0
    5.7439   -0.4997   -1.4021 H   0  0  0  0  0  0  0  0  0  0  0  0
    7.2602   -0.3172    2.0355 H   0  0  0  0  0  0  0  0  0  0  0  0
    7.0280   -2.5218   -1.6664 H   0  0  0  0  0  0  0  0  0  0  0  0
    9.1467   -1.7430    2.7548 H   0  0  0  0  0  0  0  0  0  0  0  0
    8.9105   -3.9389   -0.9297 H   0  0  0  0  0  0  0  0  0  0  0  0
    9.9768   -3.5527    1.2757 H   0  0  0  0  0  0  0  0  0  0  0  0
  1  2  1  0
  2  3  1  0
  1  4  1  0
  5  1  1  0
  4  6  2  0
  4  7  1  0
  8  5  1  0
  9  8  1  0
  8 10  1  0
  3 11  1  0
 11 12  2  0
 13 11  1  0
 12 14  1  0
 15 13  2  0
 13 16  1  0
 14 17  1  0
 14 15  1  0
 16 18  2  0
 19 16  1  0
 17 20  2  0
 21 17  1  0
 18 22  1  0
 23 19  2  0
 20 24  1  0
 25 21  2  0
 22 26  2  0
 26 23  1  0
 24 27  2  0
 27 25  1  0
 26 28  1  0
 27 29  1  0
 28 30  1  0
 30 31  1  0
 31 32  2  0
 33 31  1  0
 32 34  1  0
 35 33  2  0
 34 36  2  0
 36 35  1  0
  1 37  1  6
  2 38  1  0
  2 39  1  0
  3 40  1  0
  3 41  1  0
  5 42  1  0
  5 43  1  0
  8 44  1  0
  9 45  1  0
  9 46  1  0
  9 47  1  0
 10 48  1  0
 10 49  1  0
 10 50  1  0
 12 51  1  0
 18 52  1  0
 19 53  1  0
 20 54  1  0
 21 55  1  0
 22 56  1  0
 23 57  1  0
 24 58  1  0
 25 59  1  0
 30 60  1  0
 30 61  1  0
 32 62  1  0
 33 63  1  0
 34 64  1  0
 35 65  1  0
 36 66  1  0
M  CHG  2   2   1   7  -1
M  END
>  <SMILES_raw>  (130) 
CC(C)C[C@@H](C(O)=O)NCC1=CN(C2=CC=C(Br)C=C2)N=C1C3=CC=C(OCC4=CC=CC=C4)C=C3

>  <Protonation_Method>  (130) 
MolScrub

>  <Target_pH>  (130) 
7.4

$$$$
N-((3-(4-(benzyloxy)phenyl)-1-(4-bromophenyl)-1H-pyrazol-4-yl)methyl)-L-methionin
     RDKit          3D

 64 67  0  0  0  0  0  0  0  0999 V2000
   -3.1352   -1.5681    0.5384 C   0  0  2  0  0  0  0  0  0  0  0  0
   -1.6222   -1.4066    0.7847 N   0  0  0  0  0  0  0  0  0  0  0  0
   -0.8621   -0.6533   -0.2353 C   0  0  0  0  0  0  0  0  0  0  0  0
   -3.9067   -0.5877    1.4721 C   0  0  0  0  0  0  0  0  0  0  0  0
   -3.5014   -3.0212    0.8419 C   0  0  0  0  0  0  0  0  0  0  0  0
   -5.0488   -0.2434    1.0976 O   0  0  0  0  0  0  0  0  0  0  0  0
   -3.1579   -0.2264    2.4354 O   0  0  0  0  0  0  0  0  0  0  0  0
   -4.9902   -3.3098    0.6351 C   0  0  0  0  0  0  0  0  0  0  0  0
   -5.2924   -5.1106    0.6900 S   0  0  0  0  0  0  0  0  0  0  0  0
   -5.0399   -5.5040   -1.0589 C   0  0  0  0  0  0  0  0  0  0  0  0
   -0.9995    0.8200   -0.1543 C   0  0  0  0  0  0  0  0  0  0  0  0
   -2.1332    1.5932   -0.3114 C   0  0  0  0  0  0  0  0  0  0  0  0
    0.0239    1.7693    0.1165 C   0  0  0  0  0  0  0  0  0  0  0  0
   -1.7853    2.9032   -0.0558 N   0  0  0  0  0  0  0  0  0  0  0  0
   -0.4466    3.0183    0.1272 N   0  0  0  0  0  0  0  0  0  0  0  0
    1.4284    1.5012    0.3786 C   0  0  0  0  0  0  0  0  0  0  0  0
   -2.6352    4.0436   -0.0010 C   0  0  0  0  0  0  0  0  0  0  0  0
    2.2857    1.1282   -0.6615 C   0  0  0  0  0  0  0  0  0  0  0  0
    1.9160    1.5697    1.6856 C   0  0  0  0  0  0  0  0  0  0  0  0
   -4.0298    3.9143   -0.0876 C   0  0  0  0  0  0  0  0  0  0  0  0
   -2.0675    5.3192    0.1587 C   0  0  0  0  0  0  0  0  0  0  0  0
    3.6208    0.8052   -0.3923 C   0  0  0  0  0  0  0  0  0  0  0  0
    3.2476    1.2416    1.9493 C   0  0  0  0  0  0  0  0  0  0  0  0
   -4.8425    5.0523   -0.0314 C   0  0  0  0  0  0  0  0  0  0  0  0
   -2.8842    6.4526    0.2136 C   0  0  0  0  0  0  0  0  0  0  0  0
    4.1066    0.8574    0.9151 C   0  0  0  0  0  0  0  0  0  0  0  0
   -4.2664    6.3133    0.1145 C   0  0  0  0  0  0  0  0  0  0  0  0
    5.3719    0.5362    1.3214 O   0  0  0  0  0  0  0  0  0  0  0  0
   -5.3704    7.8469    0.1913 Br  0  0  0  0  0  0  0  0  0  0  0  0
    6.3838    0.3499    0.3270 C   0  0  0  0  0  0  0  0  0  0  0  0
    6.3961   -1.0406   -0.2706 C   0  0  0  0  0  0  0  0  0  0  0  0
    6.0147   -2.1625    0.4794 C   0  0  0  0  0  0  0  0  0  0  0  0
    6.8505   -1.2282   -1.5850 C   0  0  0  0  0  0  0  0  0  0  0  0
    6.0588   -3.4397   -0.0823 C   0  0  0  0  0  0  0  0  0  0  0  0
    6.8951   -2.5065   -2.1439 C   0  0  0  0  0  0  0  0  0  0  0  0
    6.4962   -3.6099   -1.3940 C   0  0  0  0  0  0  0  0  0  0  0  0
   -3.3247   -1.3330   -0.5147 H   0  0  0  0  0  0  0  0  0  0  0  0
   -1.1762   -2.2856    1.0561 H   0  0  0  0  0  0  0  0  0  0  0  0
   -1.6511   -0.8319    1.6687 H   0  0  0  0  0  0  0  0  0  0  0  0
   -1.1710   -1.0250   -1.2202 H   0  0  0  0  0  0  0  0  0  0  0  0
    0.1817   -0.9570   -0.0969 H   0  0  0  0  0  0  0  0  0  0  0  0
   -2.8968   -3.6683    0.1928 H   0  0  0  0  0  0  0  0  0  0  0  0
   -3.2314   -3.2641    1.8777 H   0  0  0  0  0  0  0  0  0  0  0  0
   -5.5803   -2.8605    1.4396 H   0  0  0  0  0  0  0  0  0  0  0  0
   -5.3529   -2.9053   -0.3152 H   0  0  0  0  0  0  0  0  0  0  0  0
   -5.7692   -4.9687   -1.6735 H   0  0  0  0  0  0  0  0  0  0  0  0
   -4.0266   -5.2406   -1.3714 H   0  0  0  0  0  0  0  0  0  0  0  0
   -5.1821   -6.5775   -1.2105 H   0  0  0  0  0  0  0  0  0  0  0  0
   -3.1550    1.3229   -0.5342 H   0  0  0  0  0  0  0  0  0  0  0  0
    1.9270    1.0924   -1.6875 H   0  0  0  0  0  0  0  0  0  0  0  0
    1.2641    1.8777    2.5010 H   0  0  0  0  0  0  0  0  0  0  0  0
   -4.5203    2.9465   -0.1683 H   0  0  0  0  0  0  0  0  0  0  0  0
   -0.9900    5.4438    0.2473 H   0  0  0  0  0  0  0  0  0  0  0  0
    4.2474    0.5057   -1.2260 H   0  0  0  0  0  0  0  0  0  0  0  0
    3.6209    1.2907    2.9701 H   0  0  0  0  0  0  0  0  0  0  0  0
   -5.9227    4.9398   -0.0889 H   0  0  0  0  0  0  0  0  0  0  0  0
   -2.4337    7.4337    0.3389 H   0  0  0  0  0  0  0  0  0  0  0  0
    6.3181    1.1299   -0.4427 H   0  0  0  0  0  0  0  0  0  0  0  0
    7.3466    0.4968    0.8316 H   0  0  0  0  0  0  0  0  0  0  0  0
    5.6807   -2.0459    1.5089 H   0  0  0  0  0  0  0  0  0  0  0  0
    7.1756   -0.3791   -2.1826 H   0  0  0  0  0  0  0  0  0  0  0  0
    5.7597   -4.3052    0.5055 H   0  0  0  0  0  0  0  0  0  0  0  0
    7.2483   -2.6432   -3.1619 H   0  0  0  0  0  0  0  0  0  0  0  0
    6.5352   -4.6059   -1.8273 H   0  0  0  0  0  0  0  0  0  0  0  0
  1  2  1  0
  2  3  1  0
  1  4  1  0
  5  1  1  0
  4  6  2  0
  4  7  1  0
  8  5  1  0
  9  8  1  0
 10  9  1  0
  3 11  1  0
 11 12  2  0
 13 11  1  0
 12 14  1  0
 15 13  2  0
 13 16  1  0
 14 17  1  0
 14 15  1  0
 16 18  2  0
 19 16  1  0
 17 20  2  0
 21 17  1  0
 18 22  1  0
 23 19  2  0
 20 24  1  0
 25 21  2  0
 22 26  2  0
 26 23  1  0
 24 27  2  0
 27 25  1  0
 26 28  1  0
 27 29  1  0
 28 30  1  0
 30 31  1  0
 31 32  2  0
 33 31  1  0
 32 34  1  0
 35 33  2  0
 34 36  2  0
 36 35  1  0
  1 37  1  6
  2 38  1  0
  2 39  1  0
  3 40  1  0
  3 41  1  0
  5 42  1  0
  5 43  1  0
  8 44  1  0
  8 45  1  0
 10 46  1  0
 10 47  1  0
 10 48  1  0
 12 49  1  0
 18 50  1  0
 19 51  1  0
 20 52  1  0
 21 53  1  0
 22 54  1  0
 23 55  1  0
 24 56  1  0
 25 57  1  0
 30 58  1  0
 30 59  1  0
 32 60  1  0
 33 61  1  0
 34 62  1  0
 35 63  1  0
 36 64  1  0
M  CHG  2   2   1   7  -1
M  END
>  <SMILES_raw>  (131) 
CSCC[C@@H](C(O)=O)NCC1=CN(C2=CC=C(Br)C=C2)N=C1C3=CC=C(OCC4=CC=CC=C4)C=C3

>  <Protonation_Method>  (131) 
MolScrub

>  <Target_pH>  (131) 
7.4

$$$$
N-((3-(4-(benzyloxy)phenyl)-1-(4-bromophenyl)-1H-pyrazol-4-yl)methyl)-L-phenylalanin
     RDKit          3D

 67 71  0  0  0  0  0  0  0  0999 V2000
   -3.3583   -0.9248   -0.6829 C   0  0  2  0  0  0  0  0  0  0  0  0
   -1.9225   -0.8853   -0.1069 N   0  0  0  0  0  0  0  0  0  0  0  0
   -1.0250    0.0953   -0.7747 C   0  0  0  0  0  0  0  0  0  0  0  0
   -4.1591    0.2493   -0.0476 C   0  0  0  0  0  0  0  0  0  0  0  0
   -4.0092   -2.2416   -0.2392 C   0  0  0  0  0  0  0  0  0  0  0  0
   -4.8150    0.9812   -0.8218 O   0  0  0  0  0  0  0  0  0  0  0  0
   -3.8468    0.3830    1.1793 O   0  0  0  0  0  0  0  0  0  0  0  0
   -5.2179   -2.6004   -1.0700 C   0  0  0  0  0  0  0  0  0  0  0  0
   -6.4890   -2.1346   -0.7047 C   0  0  0  0  0  0  0  0  0  0  0  0
   -5.0854   -3.3735   -2.2326 C   0  0  0  0  0  0  0  0  0  0  0  0
   -7.6040   -2.4327   -1.4887 C   0  0  0  0  0  0  0  0  0  0  0  0
   -6.2042   -3.6738   -3.0123 C   0  0  0  0  0  0  0  0  0  0  0  0
   -7.4619   -3.1992   -2.6444 C   0  0  0  0  0  0  0  0  0  0  0  0
   -0.6646    1.2422    0.0894 C   0  0  0  0  0  0  0  0  0  0  0  0
   -1.4313    2.3581    0.3589 C   0  0  0  0  0  0  0  0  0  0  0  0
    0.5262    1.4550    0.8296 C   0  0  0  0  0  0  0  0  0  0  0  0
   -0.7284    3.1450    1.2410 N   0  0  0  0  0  0  0  0  0  0  0  0
    0.5084    2.6303    1.4654 N   0  0  0  0  0  0  0  0  0  0  0  0
    1.6661    0.5613    0.9489 C   0  0  0  0  0  0  0  0  0  0  0  0
   -1.1517    4.3475    1.8716 C   0  0  0  0  0  0  0  0  0  0  0  0
    2.8698    0.8591    0.3033 C   0  0  0  0  0  0  0  0  0  0  0  0
    1.5581   -0.6102    1.7053 C   0  0  0  0  0  0  0  0  0  0  0  0
   -0.2488    5.0601    2.6770 C   0  0  0  0  0  0  0  0  0  0  0  0
   -2.4610    4.8253    1.7142 C   0  0  0  0  0  0  0  0  0  0  0  0
    3.9605   -0.0119    0.4084 C   0  0  0  0  0  0  0  0  0  0  0  0
    2.6492   -1.4760    1.8078 C   0  0  0  0  0  0  0  0  0  0  0  0
   -0.6482    6.2428    3.3070 C   0  0  0  0  0  0  0  0  0  0  0  0
   -2.8569    6.0063    2.3502 C   0  0  0  0  0  0  0  0  0  0  0  0
    3.8571   -1.1747    1.1730 C   0  0  0  0  0  0  0  0  0  0  0  0
   -1.9485    6.7122    3.1374 C   0  0  0  0  0  0  0  0  0  0  0  0
    4.8452   -2.1019    1.3517 O   0  0  0  0  0  0  0  0  0  0  0  0
   -2.4888    8.3100    3.9916 Br  0  0  0  0  0  0  0  0  0  0  0  0
    6.1998   -1.6584    1.2149 C   0  0  0  0  0  0  0  0  0  0  0  0
    6.7565   -1.9091   -0.1683 C   0  0  0  0  0  0  0  0  0  0  0  0
    7.6890   -1.0188   -0.7225 C   0  0  0  0  0  0  0  0  0  0  0  0
    6.4071   -3.0580   -0.8934 C   0  0  0  0  0  0  0  0  0  0  0  0
    8.2407   -1.2619   -1.9819 C   0  0  0  0  0  0  0  0  0  0  0  0
    6.9598   -3.2994   -2.1524 C   0  0  0  0  0  0  0  0  0  0  0  0
    7.8753   -2.4014   -2.6963 C   0  0  0  0  0  0  0  0  0  0  0  0
   -3.2730   -0.8542   -1.7722 H   0  0  0  0  0  0  0  0  0  0  0  0
   -1.5014   -1.8064    0.0090 H   0  0  0  0  0  0  0  0  0  0  0  0
   -2.1336   -0.5086    0.8462 H   0  0  0  0  0  0  0  0  0  0  0  0
   -1.5098    0.4475   -1.6927 H   0  0  0  0  0  0  0  0  0  0  0  0
   -0.1373   -0.4677   -1.0827 H   0  0  0  0  0  0  0  0  0  0  0  0
   -3.2889   -3.0666   -0.3234 H   0  0  0  0  0  0  0  0  0  0  0  0
   -4.2953   -2.2162    0.8206 H   0  0  0  0  0  0  0  0  0  0  0  0
   -6.6192   -1.5150    0.1830 H   0  0  0  0  0  0  0  0  0  0  0  0
   -4.1122   -3.7439   -2.5476 H   0  0  0  0  0  0  0  0  0  0  0  0
   -8.5797   -2.0456   -1.2079 H   0  0  0  0  0  0  0  0  0  0  0  0
   -6.0950   -4.2675   -3.9177 H   0  0  0  0  0  0  0  0  0  0  0  0
   -8.3310   -3.4216   -3.2579 H   0  0  0  0  0  0  0  0  0  0  0  0
   -2.4250    2.6245    0.0231 H   0  0  0  0  0  0  0  0  0  0  0  0
    2.9686    1.7752   -0.2775 H   0  0  0  0  0  0  0  0  0  0  0  0
    0.6446   -0.8387    2.2469 H   0  0  0  0  0  0  0  0  0  0  0  0
    0.7690    4.7048    2.8264 H   0  0  0  0  0  0  0  0  0  0  0  0
   -3.2077    4.2919    1.1294 H   0  0  0  0  0  0  0  0  0  0  0  0
    4.8749    0.2446   -0.1202 H   0  0  0  0  0  0  0  0  0  0  0  0
    2.5700   -2.3775    2.4099 H   0  0  0  0  0  0  0  0  0  0  0  0
    0.0595    6.7818    3.9304 H   0  0  0  0  0  0  0  0  0  0  0  0
   -3.8780    6.3612    2.2288 H   0  0  0  0  0  0  0  0  0  0  0  0
    6.7956   -2.2494    1.9215 H   0  0  0  0  0  0  0  0  0  0  0  0
    6.3136   -0.6114    1.5238 H   0  0  0  0  0  0  0  0  0  0  0  0
    7.9959   -0.1301   -0.1747 H   0  0  0  0  0  0  0  0  0  0  0  0
    5.7018   -3.7746   -0.4767 H   0  0  0  0  0  0  0  0  0  0  0  0
    8.9624   -0.5665   -2.4033 H   0  0  0  0  0  0  0  0  0  0  0  0
    6.6814   -4.1930   -2.7054 H   0  0  0  0  0  0  0  0  0  0  0  0
    8.3076   -2.5933   -3.6748 H   0  0  0  0  0  0  0  0  0  0  0  0
  1  2  1  0
  2  3  1  0
  1  4  1  0
  1  5  1  0
  4  6  2  0
  4  7  1  0
  5  8  1  0
  8  9  2  0
 10  8  1  0
  9 11  1  0
 12 10  2  0
 11 13  2  0
 13 12  1  0
  3 14  1  0
 14 15  2  0
 16 14  1  0
 15 17  1  0
 18 16  2  0
 16 19  1  0
 17 20  1  0
 17 18  1  0
 19 21  2  0
 22 19  1  0
 20 23  2  0
 24 20  1  0
 21 25  1  0
 26 22  2  0
 23 27  1  0
 28 24  2  0
 25 29  2  0
 29 26  1  0
 27 30  2  0
 30 28  1  0
 29 31  1  0
 30 32  1  0
 31 33  1  0
 33 34  1  0
 34 35  2  0
 36 34  1  0
 35 37  1  0
 38 36  2  0
 37 39  2  0
 39 38  1  0
  1 40  1  6
  2 41  1  0
  2 42  1  0
  3 43  1  0
  3 44  1  0
  5 45  1  0
  5 46  1  0
  9 47  1  0
 10 48  1  0
 11 49  1  0
 12 50  1  0
 13 51  1  0
 15 52  1  0
 21 53  1  0
 22 54  1  0
 23 55  1  0
 24 56  1  0
 25 57  1  0
 26 58  1  0
 27 59  1  0
 28 60  1  0
 33 61  1  0
 33 62  1  0
 35 63  1  0
 36 64  1  0
 37 65  1  0
 38 66  1  0
 39 67  1  0
M  CHG  2   2   1   7  -1
M  END
>  <SMILES_raw>  (132) 
O=C(O)[C@H](CC1=CC=CC=C1)NCC2=CN(C3=CC=C(Br)C=C3)N=C2C4=CC=C(OCC5=CC=CC=C5)C=C4

>  <Protonation_Method>  (132) 
MolScrub

>  <Target_pH>  (132) 
7.4

$$$$
N-((3-(4-(benzyloxy)phenyl)-1-(4-bromophenyl)-1H-pyrazol-4-yl)methyl)-L-tryptophan
     RDKit          3D

 71 76  0  0  0  0  0  0  0  0999 V2000
   -2.6443   -1.3268    1.8328 C   0  0  2  0  0  0  0  0  0  0  0  0
   -1.6953   -0.3654    1.0854 N   0  0  0  0  0  0  0  0  0  0  0  0
   -1.3202    0.8013    1.9238 C   0  0  0  0  0  0  0  0  0  0  0  0
   -1.8736   -2.0297    2.9835 C   0  0  0  0  0  0  0  0  0  0  0  0
   -3.1142   -2.4294    0.8714 C   0  0  0  0  0  0  0  0  0  0  0  0
   -2.4794   -2.1715    4.0718 O   0  0  0  0  0  0  0  0  0  0  0  0
   -0.6533   -2.1958    2.6655 O   0  0  0  0  0  0  0  0  0  0  0  0
   -4.5944   -2.6544    0.9678 C   0  0  0  0  0  0  0  0  0  0  0  0
   -5.2472   -3.2178    2.0472 C   0  0  0  0  0  0  0  0  0  0  0  0
   -5.5987   -2.3378   -0.0041 C   0  0  0  0  0  0  0  0  0  0  0  0
   -6.5855   -3.2539    1.7752 N   0  0  0  0  0  0  0  0  0  0  0  0
   -6.8303   -2.7246    0.5303 C   0  0  0  0  0  0  0  0  0  0  0  0
   -5.5816   -1.7611   -1.2915 C   0  0  0  0  0  0  0  0  0  0  0  0
   -8.0413   -2.5648   -0.1558 C   0  0  0  0  0  0  0  0  0  0  0  0
   -6.7840   -1.5939   -1.9913 C   0  0  0  0  0  0  0  0  0  0  0  0
   -7.9945   -1.9915   -1.4301 C   0  0  0  0  0  0  0  0  0  0  0  0
   -0.5324    1.8246    1.1894 C   0  0  0  0  0  0  0  0  0  0  0  0
   -0.8895    3.1479    0.9962 C   0  0  0  0  0  0  0  0  0  0  0  0
    0.7368    1.7079    0.5502 C   0  0  0  0  0  0  0  0  0  0  0  0
    0.1396    3.7619    0.3202 N   0  0  0  0  0  0  0  0  0  0  0  0
    1.0917    2.8677   -0.0164 N   0  0  0  0  0  0  0  0  0  0  0  0
    1.6130    0.5433    0.4181 C   0  0  0  0  0  0  0  0  0  0  0  0
    0.2774    5.1365   -0.0216 C   0  0  0  0  0  0  0  0  0  0  0  0
    1.8768   -0.3046    1.4957 C   0  0  0  0  0  0  0  0  0  0  0  0
    2.2345    0.2781   -0.8098 C   0  0  0  0  0  0  0  0  0  0  0  0
    1.4536    5.5713   -0.6551 C   0  0  0  0  0  0  0  0  0  0  0  0
   -0.7260    6.0688    0.2835 C   0  0  0  0  0  0  0  0  0  0  0  0
    2.7226   -1.4076    1.3353 C   0  0  0  0  0  0  0  0  0  0  0  0
    3.0868   -0.8219   -0.9655 C   0  0  0  0  0  0  0  0  0  0  0  0
    1.6241    6.9194   -0.9816 C   0  0  0  0  0  0  0  0  0  0  0  0
   -0.5483    7.4174   -0.0451 C   0  0  0  0  0  0  0  0  0  0  0  0
    3.3294   -1.6763    0.1066 C   0  0  0  0  0  0  0  0  0  0  0  0
    0.6240    7.8366   -0.6722 C   0  0  0  0  0  0  0  0  0  0  0  0
    4.1452   -2.7712    0.0997 O   0  0  0  0  0  0  0  0  0  0  0  0
    0.8536    9.6614   -1.1145 Br  0  0  0  0  0  0  0  0  0  0  0  0
    4.6540   -3.2407   -1.1514 C   0  0  0  0  0  0  0  0  0  0  0  0
    5.9337   -2.5523   -1.5745 C   0  0  0  0  0  0  0  0  0  0  0  0
    6.2180   -2.3758   -2.9373 C   0  0  0  0  0  0  0  0  0  0  0  0
    6.8853   -2.1416   -0.6281 C   0  0  0  0  0  0  0  0  0  0  0  0
    7.4140   -1.7780   -3.3427 C   0  0  0  0  0  0  0  0  0  0  0  0
    8.0815   -1.5486   -1.0351 C   0  0  0  0  0  0  0  0  0  0  0  0
    8.3456   -1.3680   -2.3909 C   0  0  0  0  0  0  0  0  0  0  0  0
   -3.4676   -0.7077    2.2064 H   0  0  0  0  0  0  0  0  0  0  0  0
   -0.8350   -0.9448    1.0008 H   0  0  0  0  0  0  0  0  0  0  0  0
   -2.0351   -0.1037    0.1599 H   0  0  0  0  0  0  0  0  0  0  0  0
   -2.2593    1.2479    2.2693 H   0  0  0  0  0  0  0  0  0  0  0  0
   -0.7750    0.4479    2.8046 H   0  0  0  0  0  0  0  0  0  0  0  0
   -2.8664   -2.1745   -0.1655 H   0  0  0  0  0  0  0  0  0  0  0  0
   -2.6084   -3.3837    1.0679 H   0  0  0  0  0  0  0  0  0  0  0  0
   -4.8675   -3.5870    2.9942 H   0  0  0  0  0  0  0  0  0  0  0  0
   -7.2933   -3.6252    2.3977 H   0  0  0  0  0  0  0  0  0  0  0  0
   -4.6481   -1.4589   -1.7536 H   0  0  0  0  0  0  0  0  0  0  0  0
   -8.9853   -2.8757    0.2806 H   0  0  0  0  0  0  0  0  0  0  0  0
   -6.7719   -1.1607   -2.9887 H   0  0  0  0  0  0  0  0  0  0  0  0
   -8.9180   -1.8593   -1.9916 H   0  0  0  0  0  0  0  0  0  0  0  0
   -1.7635    3.6939    1.3189 H   0  0  0  0  0  0  0  0  0  0  0  0
    1.4556   -0.1306    2.4815 H   0  0  0  0  0  0  0  0  0  0  0  0
    2.0732    0.9410   -1.6586 H   0  0  0  0  0  0  0  0  0  0  0  0
    2.2526    4.8731   -0.9009 H   0  0  0  0  0  0  0  0  0  0  0  0
   -1.6567    5.7871    0.7652 H   0  0  0  0  0  0  0  0  0  0  0  0
    2.9067   -2.0650    2.1843 H   0  0  0  0  0  0  0  0  0  0  0  0
    3.5565   -0.9631   -1.9321 H   0  0  0  0  0  0  0  0  0  0  0  0
    2.5403    7.2392   -1.4741 H   0  0  0  0  0  0  0  0  0  0  0  0
   -1.3269    8.1375    0.2001 H   0  0  0  0  0  0  0  0  0  0  0  0
    3.8826   -3.2018   -1.9310 H   0  0  0  0  0  0  0  0  0  0  0  0
    4.8842   -4.3041   -1.0135 H   0  0  0  0  0  0  0  0  0  0  0  0
    5.5092   -2.7023   -3.6963 H   0  0  0  0  0  0  0  0  0  0  0  0
    6.6981   -2.2819    0.4347 H   0  0  0  0  0  0  0  0  0  0  0  0
    7.6245   -1.6382   -4.3995 H   0  0  0  0  0  0  0  0  0  0  0  0
    8.8098   -1.2335   -0.2903 H   0  0  0  0  0  0  0  0  0  0  0  0
    9.2776   -0.9052   -2.7054 H   0  0  0  0  0  0  0  0  0  0  0  0
  1  2  1  0
  2  3  1  0
  1  4  1  0
  1  5  1  0
  4  6  2  0
  4  7  1  0
  5  8  1  0
  8  9  2  0
 10  8  1  0
  9 11  1  0
 12 10  2  0
 10 13  1  0
 11 12  1  0
 14 12  1  0
 13 15  2  0
 16 14  2  0
 15 16  1  0
  3 17  1  0
 17 18  2  0
 19 17  1  0
 18 20  1  0
 21 19  2  0
 19 22  1  0
 20 23  1  0
 20 21  1  0
 22 24  2  0
 25 22  1  0
 23 26  2  0
 27 23  1  0
 24 28  1  0
 29 25  2  0
 26 30  1  0
 31 27  2  0
 28 32  2  0
 32 29  1  0
 30 33  2  0
 33 31  1  0
 32 34  1  0
 33 35  1  0
 34 36  1  0
 36 37  1  0
 37 38  2  0
 39 37  1  0
 38 40  1  0
 41 39  2  0
 40 42  2  0
 42 41  1  0
  1 43  1  1
  2 44  1  0
  2 45  1  0
  3 46  1  0
  3 47  1  0
  5 48  1  0
  5 49  1  0
  9 50  1  0
 11 51  1  0
 13 52  1  0
 14 53  1  0
 15 54  1  0
 16 55  1  0
 18 56  1  0
 24 57  1  0
 25 58  1  0
 26 59  1  0
 27 60  1  0
 28 61  1  0
 29 62  1  0
 30 63  1  0
 31 64  1  0
 36 65  1  0
 36 66  1  0
 38 67  1  0
 39 68  1  0
 40 69  1  0
 41 70  1  0
 42 71  1  0
M  CHG  2   2   1   7  -1
M  END
>  <SMILES_raw>  (133) 
O=C(O)[C@H](CC1=CNC2=C1C=CC=C2)NCC3=CN(C4=CC=C(Br)C=C4)N=C3C5=CC=C(OCC6=CC=CC=C6)C=C5

>  <Protonation_Method>  (133) 
MolScrub

>  <Target_pH>  (133) 
7.4

$$$$
N-((3-(4-(benzyloxy)phenyl)-1-(4-bromophenyl)-1H-pyrazol-4-yl)methyl)-L-tyrosin
     RDKit          3D

 68 72  0  0  0  0  0  0  0  0999 V2000
   -2.2515   -1.2322    0.9003 C   0  0  2  0  0  0  0  0  0  0  0  0
   -2.5253   -0.8972   -0.5716 N   0  0  0  0  0  0  0  0  0  0  0  0
   -1.3884   -0.2937   -1.3014 C   0  0  0  0  0  0  0  0  0  0  0  0
   -1.4830   -2.5786    1.0041 C   0  0  0  0  0  0  0  0  0  0  0  0
   -3.5564   -1.3212    1.7079 C   0  0  0  0  0  0  0  0  0  0  0  0
   -0.8888   -2.8122    2.0784 O   0  0  0  0  0  0  0  0  0  0  0  0
   -1.5376   -3.2068   -0.1017 O   0  0  0  0  0  0  0  0  0  0  0  0
   -4.7546   -1.8581    0.9542 C   0  0  0  0  0  0  0  0  0  0  0  0
   -5.7974   -0.9975    0.5769 C   0  0  0  0  0  0  0  0  0  0  0  0
   -4.8287   -3.2135    0.6010 C   0  0  0  0  0  0  0  0  0  0  0  0
   -6.8763   -1.4801   -0.1638 C   0  0  0  0  0  0  0  0  0  0  0  0
   -5.9103   -3.6956   -0.1385 C   0  0  0  0  0  0  0  0  0  0  0  0
   -6.9227   -2.8223   -0.5191 C   0  0  0  0  0  0  0  0  0  0  0  0
   -7.9911   -3.2474   -1.2498 O   0  0  0  0  0  0  0  0  0  0  0  0
   -1.1404    1.1184   -0.9140 C   0  0  0  0  0  0  0  0  0  0  0  0
   -2.0469    2.1632   -0.8880 C   0  0  0  0  0  0  0  0  0  0  0  0
    0.0926    1.7126   -0.5220 C   0  0  0  0  0  0  0  0  0  0  0  0
   -1.3621    3.2946   -0.4991 N   0  0  0  0  0  0  0  0  0  0  0  0
   -0.0543    3.0232   -0.3002 N   0  0  0  0  0  0  0  0  0  0  0  0
    1.4028    1.0835   -0.3862 C   0  0  0  0  0  0  0  0  0  0  0  0
   -1.8711    4.6114   -0.3136 C   0  0  0  0  0  0  0  0  0  0  0  0
    1.5941   -0.0143    0.4608 C   0  0  0  0  0  0  0  0  0  0  0  0
    2.4911    1.5783   -1.1118 C   0  0  0  0  0  0  0  0  0  0  0  0
   -0.9970    5.6358    0.0863 C   0  0  0  0  0  0  0  0  0  0  0  0
   -3.2270    4.9064   -0.5186 C   0  0  0  0  0  0  0  0  0  0  0  0
    2.8473   -0.6321    0.5561 C   0  0  0  0  0  0  0  0  0  0  0  0
    3.7415    0.9619   -1.0110 C   0  0  0  0  0  0  0  0  0  0  0  0
   -1.4712    6.9366    0.2767 C   0  0  0  0  0  0  0  0  0  0  0  0
   -3.6969    6.2106   -0.3266 C   0  0  0  0  0  0  0  0  0  0  0  0
    3.9252   -0.1497   -0.1853 C   0  0  0  0  0  0  0  0  0  0  0  0
   -2.8186    7.2177    0.0690 C   0  0  0  0  0  0  0  0  0  0  0  0
    5.1934   -0.6592   -0.1893 O   0  0  0  0  0  0  0  0  0  0  0  0
   -3.4626    8.9755    0.3252 Br  0  0  0  0  0  0  0  0  0  0  0  0
    5.4224   -1.8355    0.5861 C   0  0  0  0  0  0  0  0  0  0  0  0
    6.8515   -2.2713    0.3721 C   0  0  0  0  0  0  0  0  0  0  0  0
    7.8060   -2.1326    1.3890 C   0  0  0  0  0  0  0  0  0  0  0  0
    7.2459   -2.8146   -0.8595 C   0  0  0  0  0  0  0  0  0  0  0  0
    9.1247   -2.5417    1.1816 C   0  0  0  0  0  0  0  0  0  0  0  0
    8.5648   -3.2221   -1.0653 C   0  0  0  0  0  0  0  0  0  0  0  0
    9.5031   -3.0874   -0.0439 C   0  0  0  0  0  0  0  0  0  0  0  0
   -1.6275   -0.4323    1.3124 H   0  0  0  0  0  0  0  0  0  0  0  0
   -2.5938   -1.8693   -0.9498 H   0  0  0  0  0  0  0  0  0  0  0  0
   -3.4230   -0.4423   -0.7322 H   0  0  0  0  0  0  0  0  0  0  0  0
   -0.5159   -0.9365   -1.1592 H   0  0  0  0  0  0  0  0  0  0  0  0
   -1.6569   -0.3372   -2.3631 H   0  0  0  0  0  0  0  0  0  0  0  0
   -3.7982   -0.3116    2.0664 H   0  0  0  0  0  0  0  0  0  0  0  0
   -3.4198   -1.9217    2.6167 H   0  0  0  0  0  0  0  0  0  0  0  0
   -5.7866    0.0521    0.8623 H   0  0  0  0  0  0  0  0  0  0  0  0
   -4.0420   -3.9102    0.8941 H   0  0  0  0  0  0  0  0  0  0  0  0
   -7.6861   -0.8163   -0.4546 H   0  0  0  0  0  0  0  0  0  0  0  0
   -5.9396   -4.7478   -0.4059 H   0  0  0  0  0  0  0  0  0  0  0  0
   -7.9323   -4.2127   -1.3494 H   0  0  0  0  0  0  0  0  0  0  0  0
   -3.0996    2.1905   -1.1229 H   0  0  0  0  0  0  0  0  0  0  0  0
    0.7860   -0.4031    1.0749 H   0  0  0  0  0  0  0  0  0  0  0  0
    2.3749    2.4461   -1.7573 H   0  0  0  0  0  0  0  0  0  0  0  0
    0.0609    5.4372    0.2555 H   0  0  0  0  0  0  0  0  0  0  0  0
   -3.9463    4.1551   -0.8264 H   0  0  0  0  0  0  0  0  0  0  0  0
    2.9400   -1.4819    1.2259 H   0  0  0  0  0  0  0  0  0  0  0  0
    4.5820    1.3528   -1.5801 H   0  0  0  0  0  0  0  0  0  0  0  0
   -0.7810    7.7173    0.5861 H   0  0  0  0  0  0  0  0  0  0  0  0
   -4.7494    6.4312   -0.4883 H   0  0  0  0  0  0  0  0  0  0  0  0
    4.7577   -2.6495    0.2684 H   0  0  0  0  0  0  0  0  0  0  0  0
    5.2507   -1.6266    1.6493 H   0  0  0  0  0  0  0  0  0  0  0  0
    7.5298   -1.7028    2.3492 H   0  0  0  0  0  0  0  0  0  0  0  0
    6.5226   -2.9163   -1.6660 H   0  0  0  0  0  0  0  0  0  0  0  0
    9.8574   -2.4319    1.9766 H   0  0  0  0  0  0  0  0  0  0  0  0
    8.8597   -3.6412   -2.0236 H   0  0  0  0  0  0  0  0  0  0  0  0
   10.5301   -3.4040   -0.2042 H   0  0  0  0  0  0  0  0  0  0  0  0
  1  2  1  0
  2  3  1  0
  1  4  1  0
  5  1  1  0
  4  6  2  0
  4  7  1  0
  8  5  1  0
  9  8  2  0
  8 10  1  0
 11  9  1  0
 10 12  2  0
 13 11  2  0
 12 13  1  0
 14 13  1  0
  3 15  1  0
 15 16  2  0
 17 15  1  0
 16 18  1  0
 19 17  2  0
 17 20  1  0
 18 21  1  0
 18 19  1  0
 20 22  2  0
 23 20  1  0
 21 24  2  0
 25 21  1  0
 22 26  1  0
 27 23  2  0
 24 28  1  0
 29 25  2  0
 26 30  2  0
 30 27  1  0
 28 31  2  0
 31 29  1  0
 30 32  1  0
 31 33  1  0
 32 34  1  0
 34 35  1  0
 35 36  2  0
 37 35  1  0
 36 38  1  0
 39 37  2  0
 38 40  2  0
 40 39  1  0
  1 41  1  1
  2 42  1  0
  2 43  1  0
  3 44  1  0
  3 45  1  0
  5 46  1  0
  5 47  1  0
  9 48  1  0
 10 49  1  0
 11 50  1  0
 12 51  1  0
 14 52  1  0
 16 53  1  0
 22 54  1  0
 23 55  1  0
 24 56  1  0
 25 57  1  0
 26 58  1  0
 27 59  1  0
 28 60  1  0
 29 61  1  0
 34 62  1  0
 34 63  1  0
 36 64  1  0
 37 65  1  0
 38 66  1  0
 39 67  1  0
 40 68  1  0
M  CHG  2   2   1   7  -1
M  END
>  <SMILES_raw>  (134) 
OC1=CC=C(C=C1)C[C@@H](C(O)=O)NCC2=CN(C3=CC=C(Br)C=C3)N=C2C4=CC=C(OCC5=CC=CC=C5)C=C4

>  <Protonation_Method>  (134) 
MolScrub

>  <Target_pH>  (134) 
7.4

$$$$
N-((3-(4-(benzyloxy)phenyl)-1-(4-bromophenyl)-1H-pyrazol-4-yl)methyl)-L-valin
     RDKit          3D

 63 66  0  0  0  0  0  0  0  0999 V2000
   -3.0102   -3.0873   -0.0756 C   0  0  2  0  0  0  0  0  0  0  0  0
   -2.6683   -1.6157    0.2208 N   0  0  0  0  0  0  0  0  0  0  0  0
   -1.8067   -0.9780   -0.8039 C   0  0  0  0  0  0  0  0  0  0  0  0
   -4.2327   -3.1065   -1.0571 C   0  0  0  0  0  0  0  0  0  0  0  0
   -3.2822   -3.7996    1.2660 C   0  0  0  0  0  0  0  0  0  0  0  0
   -4.8132   -1.9688   -1.0396 O   0  0  0  0  0  0  0  0  0  0  0  0
   -4.4028   -4.1369   -1.7423 O   0  0  0  0  0  0  0  0  0  0  0  0
   -3.3963   -5.3161    1.0811 C   0  0  0  0  0  0  0  0  0  0  0  0
   -4.5211   -3.2739    2.0035 C   0  0  0  0  0  0  0  0  0  0  0  0
   -1.7049    0.4915   -0.6081 C   0  0  0  0  0  0  0  0  0  0  0  0
   -2.7163    1.3814   -0.2953 C   0  0  0  0  0  0  0  0  0  0  0  0
   -0.5451    1.3092   -0.7279 C   0  0  0  0  0  0  0  0  0  0  0  0
   -2.1512    2.6336   -0.1951 N   0  0  0  0  0  0  0  0  0  0  0  0
   -0.8165    2.5811   -0.4135 N   0  0  0  0  0  0  0  0  0  0  0  0
    0.8084    0.9101   -1.1057 C   0  0  0  0  0  0  0  0  0  0  0  0
   -2.7926    3.8660    0.1159 C   0  0  0  0  0  0  0  0  0  0  0  0
    1.9041    1.3117   -0.3306 C   0  0  0  0  0  0  0  0  0  0  0  0
    1.0318    0.1214   -2.2401 C   0  0  0  0  0  0  0  0  0  0  0  0
   -4.1786    3.9348    0.3197 C   0  0  0  0  0  0  0  0  0  0  0  0
   -2.0207    5.0359    0.2235 C   0  0  0  0  0  0  0  0  0  0  0  0
    3.2021    0.9085   -0.6675 C   0  0  0  0  0  0  0  0  0  0  0  0
    2.3285   -0.2838   -2.5693 C   0  0  0  0  0  0  0  0  0  0  0  0
   -4.7799    5.1574    0.6399 C   0  0  0  0  0  0  0  0  0  0  0  0
   -2.6258    6.2548    0.5431 C   0  0  0  0  0  0  0  0  0  0  0  0
    3.4185    0.1104   -1.7904 C   0  0  0  0  0  0  0  0  0  0  0  0
   -4.0019    6.3087    0.7532 C   0  0  0  0  0  0  0  0  0  0  0  0
    4.6262   -0.3715   -2.2119 O   0  0  0  0  0  0  0  0  0  0  0  0
   -4.8193    7.9537    1.1960 Br  0  0  0  0  0  0  0  0  0  0  0  0
    5.8059    0.3112   -1.7743 C   0  0  0  0  0  0  0  0  0  0  0  0
    6.3644   -0.2331   -0.4787 C   0  0  0  0  0  0  0  0  0  0  0  0
    6.2837   -1.5986   -0.1671 C   0  0  0  0  0  0  0  0  0  0  0  0
    7.0316    0.6243    0.4090 C   0  0  0  0  0  0  0  0  0  0  0  0
    6.8341   -2.0898    1.0186 C   0  0  0  0  0  0  0  0  0  0  0  0
    7.5817    0.1316    1.5932 C   0  0  0  0  0  0  0  0  0  0  0  0
    7.4816   -1.2248    1.8983 C   0  0  0  0  0  0  0  0  0  0  0  0
   -2.1247   -3.5168   -0.5612 H   0  0  0  0  0  0  0  0  0  0  0  0
   -3.6182   -1.1986    0.0693 H   0  0  0  0  0  0  0  0  0  0  0  0
   -2.3808   -1.4277    1.1824 H   0  0  0  0  0  0  0  0  0  0  0  0
   -2.2239   -1.1988   -1.7941 H   0  0  0  0  0  0  0  0  0  0  0  0
   -0.8285   -1.4623   -0.7131 H   0  0  0  0  0  0  0  0  0  0  0  0
   -2.4138   -3.6259    1.9203 H   0  0  0  0  0  0  0  0  0  0  0  0
   -3.4363   -5.8186    2.0555 H   0  0  0  0  0  0  0  0  0  0  0  0
   -2.5291   -5.7114    0.5386 H   0  0  0  0  0  0  0  0  0  0  0  0
   -4.3031   -5.5912    0.5306 H   0  0  0  0  0  0  0  0  0  0  0  0
   -5.4410   -3.4745    1.4421 H   0  0  0  0  0  0  0  0  0  0  0  0
   -4.6198   -3.7589    2.9819 H   0  0  0  0  0  0  0  0  0  0  0  0
   -4.4570   -2.1967    2.1799 H   0  0  0  0  0  0  0  0  0  0  0  0
   -3.7748    1.2211   -0.1506 H   0  0  0  0  0  0  0  0  0  0  0  0
    1.7543    1.9379    0.5472 H   0  0  0  0  0  0  0  0  0  0  0  0
    0.2122   -0.1715   -2.8922 H   0  0  0  0  0  0  0  0  0  0  0  0
   -4.8244    3.0658    0.2360 H   0  0  0  0  0  0  0  0  0  0  0  0
   -0.9426    5.0124    0.0774 H   0  0  0  0  0  0  0  0  0  0  0  0
    4.0160    1.2220   -0.0220 H   0  0  0  0  0  0  0  0  0  0  0  0
    2.4958   -0.8992   -3.4513 H   0  0  0  0  0  0  0  0  0  0  0  0
   -5.8557    5.2001    0.8011 H   0  0  0  0  0  0  0  0  0  0  0  0
   -2.0134    7.1483    0.6345 H   0  0  0  0  0  0  0  0  0  0  0  0
    5.6405    1.3961   -1.7307 H   0  0  0  0  0  0  0  0  0  0  0  0
    6.5640    0.1492   -2.5505 H   0  0  0  0  0  0  0  0  0  0  0  0
    5.7871   -2.2862   -0.8488 H   0  0  0  0  0  0  0  0  0  0  0  0
    7.1294    1.6848    0.1855 H   0  0  0  0  0  0  0  0  0  0  0  0
    6.7633   -3.1497    1.2512 H   0  0  0  0  0  0  0  0  0  0  0  0
    8.0950    0.8049    2.2739 H   0  0  0  0  0  0  0  0  0  0  0  0
    7.9135   -1.6074    2.8192 H   0  0  0  0  0  0  0  0  0  0  0  0
  1  2  1  0
  2  3  1  0
  1  4  1  0
  5  1  1  0
  4  6  2  0
  4  7  1  0
  8  5  1  0
  5  9  1  0
  3 10  1  0
 10 11  2  0
 12 10  1  0
 11 13  1  0
 14 12  2  0
 12 15  1  0
 13 16  1  0
 13 14  1  0
 15 17  2  0
 18 15  1  0
 16 19  2  0
 20 16  1  0
 17 21  1  0
 22 18  2  0
 19 23  1  0
 24 20  2  0
 21 25  2  0
 25 22  1  0
 23 26  2  0
 26 24  1  0
 25 27  1  0
 26 28  1  0
 27 29  1  0
 29 30  1  0
 30 31  2  0
 32 30  1  0
 31 33  1  0
 34 32  2  0
 33 35  2  0
 35 34  1  0
  1 36  1  6
  2 37  1  0
  2 38  1  0
  3 39  1  0
  3 40  1  0
  5 41  1  0
  8 42  1  0
  8 43  1  0
  8 44  1  0
  9 45  1  0
  9 46  1  0
  9 47  1  0
 11 48  1  0
 17 49  1  0
 18 50  1  0
 19 51  1  0
 20 52  1  0
 21 53  1  0
 22 54  1  0
 23 55  1  0
 24 56  1  0
 29 57  1  0
 29 58  1  0
 31 59  1  0
 32 60  1  0
 33 61  1  0
 34 62  1  0
 35 63  1  0
M  CHG  2   2   1   7  -1
M  END
>  <SMILES_raw>  (135) 
CC(C)[C@@H](C(O)=O)NCC1=CN(C2=CC=C(Br)C=C2)N=C1C3=CC=C(OCC4=CC=CC=C4)C=C3

>  <Protonation_Method>  (135) 
MolScrub

>  <Target_pH>  (135) 
7.4

$$$$
N-((1-(4-bromophenyl)-3-(4-((3-chlorobenzyl)oxy)phenyl)-1H-pyrazol-4-yl)methyl)-L-alanin
     RDKit          3D

 57 60  0  0  0  0  0  0  0  0999 V2000
   -2.3686   -3.8483   -0.8356 C   0  0  2  0  0  0  0  0  0  0  0  0
   -2.8062   -2.3896   -0.6485 N   0  0  0  0  0  0  0  0  0  0  0  0
   -2.2598   -1.7233    0.5482 C   0  0  0  0  0  0  0  0  0  0  0  0
   -1.1816   -3.9002   -1.8424 C   0  0  0  0  0  0  0  0  0  0  0  0
   -3.5470   -4.6289   -1.3906 C   0  0  0  0  0  0  0  0  0  0  0  0
   -0.9813   -2.7352   -2.3219 O   0  0  0  0  0  0  0  0  0  0  0  0
   -0.6090   -4.9958   -2.0077 O   0  0  0  0  0  0  0  0  0  0  0  0
   -2.5253   -0.2626    0.5246 C   0  0  0  0  0  0  0  0  0  0  0  0
   -3.7516    0.3730    0.6019 C   0  0  0  0  0  0  0  0  0  0  0  0
   -1.5809    0.8025    0.4621 C   0  0  0  0  0  0  0  0  0  0  0  0
   -3.5152    1.7311    0.5969 N   0  0  0  0  0  0  0  0  0  0  0  0
   -2.1915    1.9903    0.5297 N   0  0  0  0  0  0  0  0  0  0  0  0
   -0.1251    0.7214    0.3838 C   0  0  0  0  0  0  0  0  0  0  0  0
   -4.4642    2.7903    0.6694 C   0  0  0  0  0  0  0  0  0  0  0  0
    0.6648    1.4170    1.3059 C   0  0  0  0  0  0  0  0  0  0  0  0
    0.5037   -0.0617   -0.5900 C   0  0  0  0  0  0  0  0  0  0  0  0
   -4.0114    4.1211    0.6553 C   0  0  0  0  0  0  0  0  0  0  0  0
   -5.8400    2.5329    0.7589 C   0  0  0  0  0  0  0  0  0  0  0  0
    2.0571    1.2989    1.2704 C   0  0  0  0  0  0  0  0  0  0  0  0
    1.8985   -0.1826   -0.6192 C   0  0  0  0  0  0  0  0  0  0  0  0
   -4.9214    5.1794    0.7357 C   0  0  0  0  0  0  0  0  0  0  0  0
   -6.7472    3.5961    0.8389 C   0  0  0  0  0  0  0  0  0  0  0  0
    2.6806    0.4889    0.3182 C   0  0  0  0  0  0  0  0  0  0  0  0
   -6.2848    4.9115    0.8281 C   0  0  0  0  0  0  0  0  0  0  0  0
    4.0436    0.4507    0.4069 O   0  0  0  0  0  0  0  0  0  0  0  0
   -7.5166    6.3402    0.9446 Br  0  0  0  0  0  0  0  0  0  0  0  0
    4.7296   -0.4291   -0.4846 C   0  0  0  0  0  0  0  0  0  0  0  0
    6.2173   -0.3261   -0.2322 C   0  0  0  0  0  0  0  0  0  0  0  0
    6.8389    0.9275   -0.1064 C   0  0  0  0  0  0  0  0  0  0  0  0
    7.0109   -1.4819   -0.1744 C   0  0  0  0  0  0  0  0  0  0  0  0
    8.2180    1.0257    0.0933 C   0  0  0  0  0  0  0  0  0  0  0  0
    8.3883   -1.3785    0.0260 C   0  0  0  0  0  0  0  0  0  0  0  0
    8.9944   -0.1300    0.1617 C   0  0  0  0  0  0  0  0  0  0  0  0
    9.3487   -2.8067    0.1001 Cl  0  0  0  0  0  0  0  0  0  0  0  0
   -2.0665   -4.2372    0.1424 H   0  0  0  0  0  0  0  0  0  0  0  0
   -3.8011   -2.2340   -0.8127 H   0  0  0  0  0  0  0  0  0  0  0  0
   -2.2997   -1.9643   -1.4661 H   0  0  0  0  0  0  0  0  0  0  0  0
   -2.7525   -2.1789    1.4133 H   0  0  0  0  0  0  0  0  0  0  0  0
   -1.1927   -1.9549    0.6051 H   0  0  0  0  0  0  0  0  0  0  0  0
   -4.3871   -4.6116   -0.6876 H   0  0  0  0  0  0  0  0  0  0  0  0
   -3.8924   -4.2086   -2.3434 H   0  0  0  0  0  0  0  0  0  0  0  0
   -3.2797   -5.6772   -1.5679 H   0  0  0  0  0  0  0  0  0  0  0  0
   -4.7502   -0.0277    0.6783 H   0  0  0  0  0  0  0  0  0  0  0  0
    0.2032    2.0516    2.0584 H   0  0  0  0  0  0  0  0  0  0  0  0
   -0.0702   -0.5839   -1.3506 H   0  0  0  0  0  0  0  0  0  0  0  0
   -2.9494    4.3521    0.5820 H   0  0  0  0  0  0  0  0  0  0  0  0
   -6.2446    1.5262    0.7726 H   0  0  0  0  0  0  0  0  0  0  0  0
    2.6616    1.8352    1.9998 H   0  0  0  0  0  0  0  0  0  0  0  0
    2.3313   -0.8120   -1.3931 H   0  0  0  0  0  0  0  0  0  0  0  0
   -4.5543    6.2031    0.7245 H   0  0  0  0  0  0  0  0  0  0  0  0
   -7.8120    3.3884    0.9124 H   0  0  0  0  0  0  0  0  0  0  0  0
    4.5422   -0.1503   -1.5280 H   0  0  0  0  0  0  0  0  0  0  0  0
    4.3954   -1.4595   -0.3078 H   0  0  0  0  0  0  0  0  0  0  0  0
    6.2437    1.8380   -0.1613 H   0  0  0  0  0  0  0  0  0  0  0  0
    6.5577   -2.4644   -0.2867 H   0  0  0  0  0  0  0  0  0  0  0  0
    8.6849    2.0035    0.1928 H   0  0  0  0  0  0  0  0  0  0  0  0
   10.0665   -0.0518    0.3167 H   0  0  0  0  0  0  0  0  0  0  0  0
  1  2  1  0
  2  3  1  0
  1  4  1  0
  5  1  1  0
  4  6  2  0
  4  7  1  0
  3  8  1  0
  8  9  2  0
 10  8  1  0
  9 11  1  0
 12 10  2  0
 10 13  1  0
 11 14  1  0
 11 12  1  0
 13 15  2  0
 16 13  1  0
 14 17  2  0
 18 14  1  0
 15 19  1  0
 20 16  2  0
 17 21  1  0
 22 18  2  0
 19 23  2  0
 23 20  1  0
 21 24  2  0
 24 22  1  0
 23 25  1  0
 24 26  1  0
 25 27  1  0
 27 28  1  0
 28 29  2  0
 30 28  1  0
 29 31  1  0
 32 30  2  0
 31 33  2  0
 33 32  1  0
 32 34  1  0
  1 35  1  1
  2 36  1  0
  2 37  1  0
  3 38  1  0
  3 39  1  0
  5 40  1  0
  5 41  1  0
  5 42  1  0
  9 43  1  0
 15 44  1  0
 16 45  1  0
 17 46  1  0
 18 47  1  0
 19 48  1  0
 20 49  1  0
 21 50  1  0
 22 51  1  0
 27 52  1  0
 27 53  1  0
 29 54  1  0
 30 55  1  0
 31 56  1  0
 33 57  1  0
M  CHG  2   2   1   7  -1
M  END
>  <SMILES_raw>  (136) 
C[C@@H](C(O)=O)NCC1=CN(C2=CC=C(Br)C=C2)N=C1C3=CC=C(OCC4=CC=CC(Cl)=C4)C=C3

>  <Protonation_Method>  (136) 
MolScrub

>  <Target_pH>  (136) 
7.4

$$$$
N-((1-(4-bromophenyl)-3-(4-((3-chlorobenzyl)oxy)phenyl)-1H-pyrazol-4-yl)methyl)-L-aspartic acid
     RDKit          3D

 59 62  0  0  0  0  0  0  0  0999 V2000
   -3.8124   -3.3280   -0.3159 C   0  0  2  0  0  0  0  0  0  0  0  0
   -2.7438   -2.6302    0.5616 N   0  0  0  0  0  0  0  0  0  0  0  0
   -1.6076   -1.9348   -0.0663 C   0  0  0  0  0  0  0  0  0  0  0  0
   -3.4793   -3.4530   -1.8375 C   0  0  0  0  0  0  0  0  0  0  0  0
   -5.1895   -2.7514    0.0113 C   0  0  0  0  0  0  0  0  0  0  0  0
   -4.2212   -2.8242   -2.6429 O   0  0  0  0  0  0  0  0  0  0  0  0
   -2.4216   -4.1221   -2.0687 O   0  0  0  0  0  0  0  0  0  0  0  0
   -5.3366   -2.8922    1.5123 C   0  0  0  0  0  0  0  0  0  0  0  0
   -4.5920   -2.0843    2.1613 O   0  0  0  0  0  0  0  0  0  0  0  0
   -6.0608   -3.8288    1.9255 O   0  0  0  0  0  0  0  0  0  0  0  0
   -1.8476   -0.5592   -0.5730 C   0  0  0  0  0  0  0  0  0  0  0  0
   -2.9290   -0.0602   -1.2687 C   0  0  0  0  0  0  0  0  0  0  0  0
   -0.9612    0.5535   -0.4890 C   0  0  0  0  0  0  0  0  0  0  0  0
   -2.6767    1.2579   -1.5574 N   0  0  0  0  0  0  0  0  0  0  0  0
   -1.5037    1.6618   -1.0089 N   0  0  0  0  0  0  0  0  0  0  0  0
    0.3897    0.5746    0.0591 C   0  0  0  0  0  0  0  0  0  0  0  0
   -3.4664    2.1489   -2.3383 C   0  0  0  0  0  0  0  0  0  0  0  0
    0.7218    1.4405    1.1039 C   0  0  0  0  0  0  0  0  0  0  0  0
    1.3709   -0.2771   -0.4618 C   0  0  0  0  0  0  0  0  0  0  0  0
   -3.0844    3.4958   -2.4457 C   0  0  0  0  0  0  0  0  0  0  0  0
   -4.6078    1.7007   -3.0198 C   0  0  0  0  0  0  0  0  0  0  0  0
    2.0163    1.4363    1.6330 C   0  0  0  0  0  0  0  0  0  0  0  0
    2.6674   -0.2751    0.0662 C   0  0  0  0  0  0  0  0  0  0  0  0
   -3.8317    4.3815   -3.2247 C   0  0  0  0  0  0  0  0  0  0  0  0
   -5.3495    2.5908   -3.8022 C   0  0  0  0  0  0  0  0  0  0  0  0
    2.9946    0.5815    1.1191 C   0  0  0  0  0  0  0  0  0  0  0  0
   -4.9578    3.9229   -3.9039 C   0  0  0  0  0  0  0  0  0  0  0  0
    4.2166    0.6745    1.7296 O   0  0  0  0  0  0  0  0  0  0  0  0
   -5.9574    5.1178   -4.9743 Br  0  0  0  0  0  0  0  0  0  0  0  0
    5.2781   -0.0844    1.1568 C   0  0  0  0  0  0  0  0  0  0  0  0
    6.5341    0.1889    1.9472 C   0  0  0  0  0  0  0  0  0  0  0  0
    6.7434   -0.4460    3.1819 C   0  0  0  0  0  0  0  0  0  0  0  0
    7.4944    1.0951    1.4757 C   0  0  0  0  0  0  0  0  0  0  0  0
    7.9007   -0.1967    3.9208 C   0  0  0  0  0  0  0  0  0  0  0  0
    8.6494    1.3370    2.2186 C   0  0  0  0  0  0  0  0  0  0  0  0
    8.8589    0.6921    3.4365 C   0  0  0  0  0  0  0  0  0  0  0  0
    9.8319    2.4384    1.6252 Cl  0  0  0  0  0  0  0  0  0  0  0  0
   -3.7930   -4.3654    0.0505 H   0  0  0  0  0  0  0  0  0  0  0  0
   -2.3821   -3.3700    1.1662 H   0  0  0  0  0  0  0  0  0  0  0  0
   -3.2509   -2.0116    1.2432 H   0  0  0  0  0  0  0  0  0  0  0  0
   -1.1678   -2.5728   -0.8316 H   0  0  0  0  0  0  0  0  0  0  0  0
   -0.8640   -1.8807    0.7382 H   0  0  0  0  0  0  0  0  0  0  0  0
   -5.9770   -3.3126   -0.5048 H   0  0  0  0  0  0  0  0  0  0  0  0
   -5.2859   -1.7021   -0.2801 H   0  0  0  0  0  0  0  0  0  0  0  0
   -3.8331   -0.5439   -1.6042 H   0  0  0  0  0  0  0  0  0  0  0  0
   -0.0261    2.1186    1.5108 H   0  0  0  0  0  0  0  0  0  0  0  0
    1.1405   -0.9387   -1.2952 H   0  0  0  0  0  0  0  0  0  0  0  0
   -2.2050    3.8674   -1.9247 H   0  0  0  0  0  0  0  0  0  0  0  0
   -4.9371    0.6650   -2.9806 H   0  0  0  0  0  0  0  0  0  0  0  0
    2.2647    2.1101    2.4497 H   0  0  0  0  0  0  0  0  0  0  0  0
    3.3912   -0.9537   -0.3740 H   0  0  0  0  0  0  0  0  0  0  0  0
   -3.5217    5.4186   -3.3008 H   0  0  0  0  0  0  0  0  0  0  0  0
   -6.2250    2.2255   -4.3316 H   0  0  0  0  0  0  0  0  0  0  0  0
    5.4306    0.2005    0.1082 H   0  0  0  0  0  0  0  0  0  0  0  0
    5.0599   -1.1586    1.2068 H   0  0  0  0  0  0  0  0  0  0  0  0
    5.9979   -1.1368    3.5743 H   0  0  0  0  0  0  0  0  0  0  0  0
    7.3401    1.6108    0.5307 H   0  0  0  0  0  0  0  0  0  0  0  0
    8.0524   -0.6932    4.8761 H   0  0  0  0  0  0  0  0  0  0  0  0
    9.7610    0.8805    4.0130 H   0  0  0  0  0  0  0  0  0  0  0  0
  1  2  1  0
  2  3  1  0
  1  4  1  0
  5  1  1  0
  4  6  2  0
  4  7  1  0
  5  8  1  0
  8  9  2  0
  8 10  1  0
  3 11  1  0
 11 12  2  0
 13 11  1  0
 12 14  1  0
 15 13  2  0
 13 16  1  0
 14 17  1  0
 14 15  1  0
 16 18  2  0
 19 16  1  0
 17 20  2  0
 21 17  1  0
 18 22  1  0
 23 19  2  0
 20 24  1  0
 25 21  2  0
 22 26  2  0
 26 23  1  0
 24 27  2  0
 27 25  1  0
 26 28  1  0
 27 29  1  0
 28 30  1  0
 30 31  1  0
 31 32  2  0
 33 31  1  0
 32 34  1  0
 35 33  2  0
 34 36  2  0
 36 35  1  0
 35 37  1  0
  1 38  1  1
  2 39  1  0
  2 40  1  0
  3 41  1  0
  3 42  1  0
  5 43  1  0
  5 44  1  0
 12 45  1  0
 18 46  1  0
 19 47  1  0
 20 48  1  0
 21 49  1  0
 22 50  1  0
 23 51  1  0
 24 52  1  0
 25 53  1  0
 30 54  1  0
 30 55  1  0
 32 56  1  0
 33 57  1  0
 34 58  1  0
 36 59  1  0
M  CHG  3   2   1   7  -1  10  -1
M  END
>  <SMILES_raw>  (137) 
O=C(O)C[C@@H](C(O)=O)NCC1=CN(C2=CC=C(Br)C=C2)N=C1C3=CC=C(OCC4=CC=CC(Cl)=C4)C=C3

>  <Protonation_Method>  (137) 
MolScrub

>  <Target_pH>  (137) 
7.4

$$$$
N-((1-(4-bromophenyl)-3-(4-((3-chlorobenzyl)oxy)phenyl)-1H-pyrazol-4-yl)methyl)-L-isoleucin
     RDKit          3D

 66 69  0  0  0  0  0  0  0  0999 V2000
   -3.2234   -2.5148   -1.1106 C   0  0  2  0  0  0  0  0  0  0  0  0
   -3.0597   -1.0690   -0.6150 N   0  0  0  0  0  0  0  0  0  0  0  0
   -1.7436   -0.4681   -0.9405 C   0  0  0  0  0  0  0  0  0  0  0  0
   -3.5349   -2.4364   -2.6479 C   0  0  0  0  0  0  0  0  0  0  0  0
   -4.4050   -3.1794   -0.3643 C   0  0  2  0  0  0  0  0  0  0  0  0
   -4.0664   -1.3082   -2.9225 O   0  0  0  0  0  0  0  0  0  0  0  0
   -3.1232   -3.3755   -3.3613 O   0  0  0  0  0  0  0  0  0  0  0  0
   -4.3034   -3.1396    1.1797 C   0  0  0  0  0  0  0  0  0  0  0  0
   -4.5991   -4.6342   -0.8228 C   0  0  0  0  0  0  0  0  0  0  0  0
   -3.0184   -3.7149    1.7611 C   0  0  0  0  0  0  0  0  0  0  0  0
   -1.6770    0.9642   -0.5467 C   0  0  0  0  0  0  0  0  0  0  0  0
   -2.6941    1.9021   -0.5314 C   0  0  0  0  0  0  0  0  0  0  0  0
   -0.5314    1.6853   -0.1056 C   0  0  0  0  0  0  0  0  0  0  0  0
   -2.1609    3.0846   -0.0637 N   0  0  0  0  0  0  0  0  0  0  0  0
   -0.8504    2.9378    0.2373 N   0  0  0  0  0  0  0  0  0  0  0  0
    0.8424    1.2094    0.0248 C   0  0  0  0  0  0  0  0  0  0  0  0
   -2.8231    4.3277    0.1411 C   0  0  0  0  0  0  0  0  0  0  0  0
    1.4900    0.5830   -1.0482 C   0  0  0  0  0  0  0  0  0  0  0  0
    1.5325    1.3849    1.2282 C   0  0  0  0  0  0  0  0  0  0  0  0
   -2.1096    5.4045    0.6922 C   0  0  0  0  0  0  0  0  0  0  0  0
   -4.1747    4.4984   -0.1914 C   0  0  0  0  0  0  0  0  0  0  0  0
    2.8078    0.1255   -0.9147 C   0  0  0  0  0  0  0  0  0  0  0  0
    2.8446    0.9234    1.3588 C   0  0  0  0  0  0  0  0  0  0  0  0
   -2.7410    6.6309    0.9156 C   0  0  0  0  0  0  0  0  0  0  0  0
   -4.8013    5.7303    0.0306 C   0  0  0  0  0  0  0  0  0  0  0  0
    3.4896    0.2946    0.2909 C   0  0  0  0  0  0  0  0  0  0  0  0
   -4.0838    6.7880    0.5847 C   0  0  0  0  0  0  0  0  0  0  0  0
    4.7712   -0.0986    0.5554 O   0  0  0  0  0  0  0  0  0  0  0  0
   -4.9391    8.4461    0.8859 Br  0  0  0  0  0  0  0  0  0  0  0  0
    5.5170   -0.6684   -0.5182 C   0  0  0  0  0  0  0  0  0  0  0  0
    6.9041   -0.9744   -0.0090 C   0  0  0  0  0  0  0  0  0  0  0  0
    8.0049   -0.2075   -0.4172 C   0  0  0  0  0  0  0  0  0  0  0  0
    7.1056   -2.0217    0.9036 C   0  0  0  0  0  0  0  0  0  0  0  0
    9.2842   -0.4886    0.0675 C   0  0  0  0  0  0  0  0  0  0  0  0
    8.3853   -2.2975    1.3833 C   0  0  0  0  0  0  0  0  0  0  0  0
    9.4754   -1.5369    0.9670 C   0  0  0  0  0  0  0  0  0  0  0  0
    8.6188   -3.5849    2.5011 Cl  0  0  0  0  0  0  0  0  0  0  0  0
   -2.2764   -3.0335   -0.9231 H   0  0  0  0  0  0  0  0  0  0  0  0
   -3.3508   -0.8943    0.3446 H   0  0  0  0  0  0  0  0  0  0  0  0
   -3.7328   -0.5957   -1.2630 H   0  0  0  0  0  0  0  0  0  0  0  0
   -0.9992   -1.0578   -0.3961 H   0  0  0  0  0  0  0  0  0  0  0  0
   -1.5690   -0.5734   -2.0166 H   0  0  0  0  0  0  0  0  0  0  0  0
   -5.3276   -2.6438   -0.6301 H   0  0  0  0  0  0  0  0  0  0  0  0
   -4.4253   -2.1118    1.5392 H   0  0  0  0  0  0  0  0  0  0  0  0
   -5.1520   -3.6921    1.6066 H   0  0  0  0  0  0  0  0  0  0  0  0
   -3.6828   -5.2212   -0.6960 H   0  0  0  0  0  0  0  0  0  0  0  0
   -5.4003   -5.1210   -0.2527 H   0  0  0  0  0  0  0  0  0  0  0  0
   -4.8896   -4.6841   -1.8779 H   0  0  0  0  0  0  0  0  0  0  0  0
   -2.8770   -4.7593    1.4691 H   0  0  0  0  0  0  0  0  0  0  0  0
   -2.1372   -3.1425    1.4501 H   0  0  0  0  0  0  0  0  0  0  0  0
   -3.0616   -3.6811    2.8561 H   0  0  0  0  0  0  0  0  0  0  0  0
   -3.7351    1.8223   -0.8125 H   0  0  0  0  0  0  0  0  0  0  0  0
    0.9938    0.4683   -2.0094 H   0  0  0  0  0  0  0  0  0  0  0  0
    1.0563    1.8874    2.0680 H   0  0  0  0  0  0  0  0  0  0  0  0
   -1.0580    5.3055    0.9576 H   0  0  0  0  0  0  0  0  0  0  0  0
   -4.7698    3.7053   -0.6311 H   0  0  0  0  0  0  0  0  0  0  0  0
    3.2719   -0.3485   -1.7746 H   0  0  0  0  0  0  0  0  0  0  0  0
    3.3727    1.0642    2.2993 H   0  0  0  0  0  0  0  0  0  0  0  0
   -2.1747    7.4515    1.3467 H   0  0  0  0  0  0  0  0  0  0  0  0
   -5.8485    5.8560   -0.2349 H   0  0  0  0  0  0  0  0  0  0  0  0
    5.5746    0.0331   -1.3616 H   0  0  0  0  0  0  0  0  0  0  0  0
    5.0516   -1.6032   -0.8599 H   0  0  0  0  0  0  0  0  0  0  0  0
    7.8727    0.6195   -1.1119 H   0  0  0  0  0  0  0  0  0  0  0  0
    6.2604   -2.6137    1.2464 H   0  0  0  0  0  0  0  0  0  0  0  0
   10.1319    0.1127   -0.2530 H   0  0  0  0  0  0  0  0  0  0  0  0
   10.4719   -1.7507    1.3427 H   0  0  0  0  0  0  0  0  0  0  0  0
  1  2  1  0
  2  3  1  0
  1  4  1  0
  5  1  1  0
  4  6  2  0
  4  7  1  0
  8  5  1  0
  5  9  1  0
 10  8  1  0
  3 11  1  0
 11 12  2  0
 13 11  1  0
 12 14  1  0
 15 13  2  0
 13 16  1  0
 14 17  1  0
 14 15  1  0
 16 18  2  0
 19 16  1  0
 17 20  2  0
 21 17  1  0
 18 22  1  0
 23 19  2  0
 20 24  1  0
 25 21  2  0
 22 26  2  0
 26 23  1  0
 24 27  2  0
 27 25  1  0
 26 28  1  0
 27 29  1  0
 28 30  1  0
 30 31  1  0
 31 32  2  0
 33 31  1  0
 32 34  1  0
 35 33  2  0
 34 36  2  0
 36 35  1  0
 35 37  1  0
  1 38  1  6
  2 39  1  0
  2 40  1  0
  3 41  1  0
  3 42  1  0
  5 43  1  1
  8 44  1  0
  8 45  1  0
  9 46  1  0
  9 47  1  0
  9 48  1  0
 10 49  1  0
 10 50  1  0
 10 51  1  0
 12 52  1  0
 18 53  1  0
 19 54  1  0
 20 55  1  0
 21 56  1  0
 22 57  1  0
 23 58  1  0
 24 59  1  0
 25 60  1  0
 30 61  1  0
 30 62  1  0
 32 63  1  0
 33 64  1  0
 34 65  1  0
 36 66  1  0
M  CHG  2   2   1   7  -1
M  END
>  <SMILES_raw>  (138) 
CC[C@H](C)[C@@H](C(O)=O)NCC1=CN(C2=CC=C(Br)C=C2)N=C1C3=CC=C(OCC4=CC=CC(Cl)=C4)C=C3

>  <Protonation_Method>  (138) 
MolScrub

>  <Target_pH>  (138) 
7.4

$$$$
N-((1-(4-bromophenyl)-3-(4-((3-chlorobenzyl)oxy)phenyl)-1H-pyrazol-4-yl)methyl)-L-leucin
     RDKit          3D

 66 69  0  0  0  0  0  0  0  0999 V2000
   -3.3549   -2.2480   -0.3011 C   0  0  2  0  0  0  0  0  0  0  0  0
   -3.1184   -0.7263   -0.1512 N   0  0  0  0  0  0  0  0  0  0  0  0
   -1.7653   -0.2964   -0.5841 C   0  0  0  0  0  0  0  0  0  0  0  0
   -3.5415   -2.5282   -1.8263 C   0  0  0  0  0  0  0  0  0  0  0  0
   -4.6350   -2.5578    0.4906 C   0  0  0  0  0  0  0  0  0  0  0  0
   -4.1207   -1.5391   -2.3834 O   0  0  0  0  0  0  0  0  0  0  0  0
   -2.9669   -3.5367   -2.2882 O   0  0  0  0  0  0  0  0  0  0  0  0
   -4.9183   -4.0356    0.8345 C   0  0  0  0  0  0  0  0  0  0  0  0
   -5.3041   -4.8859   -0.3732 C   0  0  0  0  0  0  0  0  0  0  0  0
   -3.7755   -4.6899    1.6118 C   0  0  0  0  0  0  0  0  0  0  0  0
   -1.5747    1.1724   -0.4525 C   0  0  0  0  0  0  0  0  0  0  0  0
   -2.5138    2.1816   -0.5729 C   0  0  0  0  0  0  0  0  0  0  0  0
   -0.3569    1.8590   -0.1823 C   0  0  0  0  0  0  0  0  0  0  0  0
   -1.8699    3.3770   -0.3362 N   0  0  0  0  0  0  0  0  0  0  0  0
   -0.5649    3.1730   -0.0494 N   0  0  0  0  0  0  0  0  0  0  0  0
    0.9849    1.3036   -0.0228 C   0  0  0  0  0  0  0  0  0  0  0  0
   -2.4181    4.6906   -0.3430 C   0  0  0  0  0  0  0  0  0  0  0  0
    1.5102    0.4085   -0.9639 C   0  0  0  0  0  0  0  0  0  0  0  0
    1.7729    1.6787    1.0703 C   0  0  0  0  0  0  0  0  0  0  0  0
   -1.5934    5.7802   -0.0170 C   0  0  0  0  0  0  0  0  0  0  0  0
   -3.7627    4.9195   -0.6686 C   0  0  0  0  0  0  0  0  0  0  0  0
    2.7994   -0.1173   -0.8057 C   0  0  0  0  0  0  0  0  0  0  0  0
    3.0576    1.1519    1.2251 C   0  0  0  0  0  0  0  0  0  0  0  0
   -2.1074    7.0797   -0.0100 C   0  0  0  0  0  0  0  0  0  0  0  0
   -4.2715    6.2234   -0.6624 C   0  0  0  0  0  0  0  0  0  0  0  0
    3.5788    0.2554    0.2894 C   0  0  0  0  0  0  0  0  0  0  0  0
   -3.4438    7.2950   -0.3321 C   0  0  0  0  0  0  0  0  0  0  0  0
    4.8491   -0.1694    0.5581 O   0  0  0  0  0  0  0  0  0  0  0  0
   -4.1402    9.0522   -0.3242 Br  0  0  0  0  0  0  0  0  0  0  0  0
    5.4748   -1.0122   -0.4064 C   0  0  0  0  0  0  0  0  0  0  0  0
    6.8892   -1.2656    0.0533 C   0  0  0  0  0  0  0  0  0  0  0  0
    7.9496   -0.4880   -0.4356 C   0  0  0  0  0  0  0  0  0  0  0  0
    7.1570   -2.2545    1.0112 C   0  0  0  0  0  0  0  0  0  0  0  0
    9.2553   -0.7088    0.0078 C   0  0  0  0  0  0  0  0  0  0  0  0
    8.4628   -2.4688    1.4517 C   0  0  0  0  0  0  0  0  0  0  0  0
    9.5132   -1.7024    0.9518 C   0  0  0  0  0  0  0  0  0  0  0  0
    8.7781   -3.6866    2.6263 Cl  0  0  0  0  0  0  0  0  0  0  0  0
   -2.4723   -2.7369    0.1219 H   0  0  0  0  0  0  0  0  0  0  0  0
   -3.3946   -0.3464    0.7543 H   0  0  0  0  0  0  0  0  0  0  0  0
   -3.7671   -0.3747   -0.8902 H   0  0  0  0  0  0  0  0  0  0  0  0
   -1.0556   -0.8362    0.0509 H   0  0  0  0  0  0  0  0  0  0  0  0
   -1.6221   -0.6032   -1.6252 H   0  0  0  0  0  0  0  0  0  0  0  0
   -5.5067   -2.1540   -0.0443 H   0  0  0  0  0  0  0  0  0  0  0  0
   -4.5981   -2.0173    1.4483 H   0  0  0  0  0  0  0  0  0  0  0  0
   -5.7935   -4.0269    1.4994 H   0  0  0  0  0  0  0  0  0  0  0  0
   -4.4401   -5.1358   -0.9932 H   0  0  0  0  0  0  0  0  0  0  0  0
   -6.0477   -4.3772   -0.9958 H   0  0  0  0  0  0  0  0  0  0  0  0
   -5.7436   -5.8335   -0.0415 H   0  0  0  0  0  0  0  0  0  0  0  0
   -4.0789   -5.6754    1.9818 H   0  0  0  0  0  0  0  0  0  0  0  0
   -2.8874   -4.8320    0.9875 H   0  0  0  0  0  0  0  0  0  0  0  0
   -3.4929   -4.0824    2.4780 H   0  0  0  0  0  0  0  0  0  0  0  0
   -3.5672    2.1438   -0.8074 H   0  0  0  0  0  0  0  0  0  0  0  0
    0.9418    0.1292   -1.8485 H   0  0  0  0  0  0  0  0  0  0  0  0
    1.3972    2.3902    1.8028 H   0  0  0  0  0  0  0  0  0  0  0  0
   -0.5442    5.6343    0.2366 H   0  0  0  0  0  0  0  0  0  0  0  0
   -4.4408    4.1172   -0.9417 H   0  0  0  0  0  0  0  0  0  0  0  0
    3.1644   -0.8040   -1.5629 H   0  0  0  0  0  0  0  0  0  0  0  0
    3.6636    1.4540    2.0766 H   0  0  0  0  0  0  0  0  0  0  0  0
   -1.4558    7.9108    0.2457 H   0  0  0  0  0  0  0  0  0  0  0  0
   -5.3136    6.3928   -0.9212 H   0  0  0  0  0  0  0  0  0  0  0  0
    5.4931   -0.5324   -1.3936 H   0  0  0  0  0  0  0  0  0  0  0  0
    4.9414   -1.9684   -0.4861 H   0  0  0  0  0  0  0  0  0  0  0  0
    7.7618    0.3012   -1.1612 H   0  0  0  0  0  0  0  0  0  0  0  0
    6.3440   -2.8505    1.4191 H   0  0  0  0  0  0  0  0  0  0  0  0
   10.0707   -0.1014   -0.3776 H   0  0  0  0  0  0  0  0  0  0  0  0
   10.5294   -1.8687    1.2982 H   0  0  0  0  0  0  0  0  0  0  0  0
  1  2  1  0
  2  3  1  0
  1  4  1  0
  5  1  1  0
  4  6  2  0
  4  7  1  0
  8  5  1  0
  9  8  1  0
  8 10  1  0
  3 11  1  0
 11 12  2  0
 13 11  1  0
 12 14  1  0
 15 13  2  0
 13 16  1  0
 14 17  1  0
 14 15  1  0
 16 18  2  0
 19 16  1  0
 17 20  2  0
 21 17  1  0
 18 22  1  0
 23 19  2  0
 20 24  1  0
 25 21  2  0
 22 26  2  0
 26 23  1  0
 24 27  2  0
 27 25  1  0
 26 28  1  0
 27 29  1  0
 28 30  1  0
 30 31  1  0
 31 32  2  0
 33 31  1  0
 32 34  1  0
 35 33  2  0
 34 36  2  0
 36 35  1  0
 35 37  1  0
  1 38  1  1
  2 39  1  0
  2 40  1  0
  3 41  1  0
  3 42  1  0
  5 43  1  0
  5 44  1  0
  8 45  1  0
  9 46  1  0
  9 47  1  0
  9 48  1  0
 10 49  1  0
 10 50  1  0
 10 51  1  0
 12 52  1  0
 18 53  1  0
 19 54  1  0
 20 55  1  0
 21 56  1  0
 22 57  1  0
 23 58  1  0
 24 59  1  0
 25 60  1  0
 30 61  1  0
 30 62  1  0
 32 63  1  0
 33 64  1  0
 34 65  1  0
 36 66  1  0
M  CHG  2   2   1   7  -1
M  END
>  <SMILES_raw>  (139) 
CC(C)C[C@@H](C(O)=O)NCC1=CN(C2=CC=C(Br)C=C2)N=C1C3=CC=C(OCC4=CC=CC(Cl)=C4)C=C3

>  <Protonation_Method>  (139) 
MolScrub

>  <Target_pH>  (139) 
7.4

$$$$
N-((1-(4-bromophenyl)-3-(4-((3-chlorobenzyl)oxy)phenyl)-1H-pyrazol-4-yl)methyl)-L-methionin
     RDKit          3D

 64 67  0  0  0  0  0  0  0  0999 V2000
   -2.5289   -1.4271   -1.1579 C   0  0  2  0  0  0  0  0  0  0  0  0
   -1.0160   -1.1683   -0.9678 N   0  0  0  0  0  0  0  0  0  0  0  0
   -0.4974    0.1042   -1.5137 C   0  0  0  0  0  0  0  0  0  0  0  0
   -3.2591   -0.9779    0.1436 C   0  0  0  0  0  0  0  0  0  0  0  0
   -2.6945   -2.9245   -1.4291 C   0  0  0  0  0  0  0  0  0  0  0  0
   -4.3859   -0.4534   -0.0016 O   0  0  0  0  0  0  0  0  0  0  0  0
   -2.4619   -1.0750    1.1334 O   0  0  0  0  0  0  0  0  0  0  0  0
   -4.1397   -3.3439   -1.7158 C   0  0  0  0  0  0  0  0  0  0  0  0
   -4.9814   -4.0912   -0.2844 S   0  0  0  0  0  0  0  0  0  0  0  0
   -4.1470   -5.6960   -0.2274 C   0  0  0  0  0  0  0  0  0  0  0  0
   -0.8590    1.3178   -0.7450 C   0  0  0  0  0  0  0  0  0  0  0  0
   -2.0824    1.9526   -0.6668 C   0  0  0  0  0  0  0  0  0  0  0  0
   -0.0120    2.1091    0.0789 C   0  0  0  0  0  0  0  0  0  0  0  0
   -1.9488    3.0061    0.2121 N   0  0  0  0  0  0  0  0  0  0  0  0
   -0.6478    3.1830    0.5551 N   0  0  0  0  0  0  0  0  0  0  0  0
    1.3851    1.8624    0.3961 C   0  0  0  0  0  0  0  0  0  0  0  0
   -2.9657    3.8679    0.7071 C   0  0  0  0  0  0  0  0  0  0  0  0
    1.7320    0.7800    1.2119 C   0  0  0  0  0  0  0  0  0  0  0  0
    2.3866    2.6792   -0.1303 C   0  0  0  0  0  0  0  0  0  0  0  0
   -2.6075    5.0025    1.4527 C   0  0  0  0  0  0  0  0  0  0  0  0
   -4.3213    3.5909    0.4786 C   0  0  0  0  0  0  0  0  0  0  0  0
    3.0766    0.4944    1.4717 C   0  0  0  0  0  0  0  0  0  0  0  0
    3.7277    2.3888    0.1318 C   0  0  0  0  0  0  0  0  0  0  0  0
   -3.5939    5.8631    1.9427 C   0  0  0  0  0  0  0  0  0  0  0  0
   -5.3049    4.4544    0.9734 C   0  0  0  0  0  0  0  0  0  0  0  0
    4.0813    1.2870    0.9172 C   0  0  0  0  0  0  0  0  0  0  0  0
   -4.9369    5.5867    1.6975 C   0  0  0  0  0  0  0  0  0  0  0  0
    5.4280    1.1096    1.0714 O   0  0  0  0  0  0  0  0  0  0  0  0
   -6.2704    6.7521    2.3597 Br  0  0  0  0  0  0  0  0  0  0  0  0
    5.9006   -0.1271    1.6123 C   0  0  0  0  0  0  0  0  0  0  0  0
    5.8385   -1.2507    0.6019 C   0  0  0  0  0  0  0  0  0  0  0  0
    6.4071   -1.0905   -0.6717 C   0  0  0  0  0  0  0  0  0  0  0  0
    5.2295   -2.4722    0.9236 C   0  0  0  0  0  0  0  0  0  0  0  0
    6.3590   -2.1241   -1.6090 C   0  0  0  0  0  0  0  0  0  0  0  0
    5.1776   -3.4987   -0.0205 C   0  0  0  0  0  0  0  0  0  0  0  0
    5.7407   -3.3306   -1.2839 C   0  0  0  0  0  0  0  0  0  0  0  0
    4.4012   -4.9828    0.3764 Cl  0  0  0  0  0  0  0  0  0  0  0  0
   -2.8513   -0.8380   -2.0230 H   0  0  0  0  0  0  0  0  0  0  0  0
   -0.4446   -1.9777   -1.2094 H   0  0  0  0  0  0  0  0  0  0  0  0
   -0.9940   -1.1021    0.0815 H   0  0  0  0  0  0  0  0  0  0  0  0
    0.5897   -0.0180   -1.5545 H   0  0  0  0  0  0  0  0  0  0  0  0
   -0.8414    0.1777   -2.5513 H   0  0  0  0  0  0  0  0  0  0  0  0
   -2.2535   -3.5122   -0.6155 H   0  0  0  0  0  0  0  0  0  0  0  0
   -2.1046   -3.1625   -2.3251 H   0  0  0  0  0  0  0  0  0  0  0  0
   -4.7351   -2.4932   -2.0638 H   0  0  0  0  0  0  0  0  0  0  0  0
   -4.1553   -4.0843   -2.5235 H   0  0  0  0  0  0  0  0  0  0  0  0
   -4.6000   -6.3050    0.5597 H   0  0  0  0  0  0  0  0  0  0  0  0
   -3.0853   -5.5775    0.0017 H   0  0  0  0  0  0  0  0  0  0  0  0
   -4.2622   -6.2214   -1.1793 H   0  0  0  0  0  0  0  0  0  0  0  0
   -3.0366    1.7181   -1.1169 H   0  0  0  0  0  0  0  0  0  0  0  0
    0.9580    0.1677    1.6724 H   0  0  0  0  0  0  0  0  0  0  0  0
    2.1306    3.5418   -0.7407 H   0  0  0  0  0  0  0  0  0  0  0  0
   -1.5634    5.2313    1.6576 H   0  0  0  0  0  0  0  0  0  0  0  0
   -4.6498    2.6943   -0.0428 H   0  0  0  0  0  0  0  0  0  0  0  0
    3.2960   -0.3434    2.1230 H   0  0  0  0  0  0  0  0  0  0  0  0
    4.5046    3.0265   -0.2832 H   0  0  0  0  0  0  0  0  0  0  0  0
   -3.3023    6.7384    2.5170 H   0  0  0  0  0  0  0  0  0  0  0  0
   -6.3531    4.2231    0.7999 H   0  0  0  0  0  0  0  0  0  0  0  0
    6.9553    0.0241    1.8735 H   0  0  0  0  0  0  0  0  0  0  0  0
    5.3995   -0.3705    2.5562 H   0  0  0  0  0  0  0  0  0  0  0  0
    6.8884   -0.1501   -0.9378 H   0  0  0  0  0  0  0  0  0  0  0  0
    4.7911   -2.6247    1.9071 H   0  0  0  0  0  0  0  0  0  0  0  0
    6.8049   -1.9868   -2.5913 H   0  0  0  0  0  0  0  0  0  0  0  0
    5.7054   -4.1335   -2.0155 H   0  0  0  0  0  0  0  0  0  0  0  0
  1  2  1  0
  2  3  1  0
  1  4  1  0
  5  1  1  0
  4  6  2  0
  4  7  1  0
  8  5  1  0
  9  8  1  0
 10  9  1  0
  3 11  1  0
 11 12  2  0
 13 11  1  0
 12 14  1  0
 15 13  2  0
 13 16  1  0
 14 17  1  0
 14 15  1  0
 16 18  2  0
 19 16  1  0
 17 20  2  0
 21 17  1  0
 18 22  1  0
 23 19  2  0
 20 24  1  0
 25 21  2  0
 22 26  2  0
 26 23  1  0
 24 27  2  0
 27 25  1  0
 26 28  1  0
 27 29  1  0
 28 30  1  0
 30 31  1  0
 31 32  2  0
 33 31  1  0
 32 34  1  0
 35 33  2  0
 34 36  2  0
 36 35  1  0
 35 37  1  0
  1 38  1  6
  2 39  1  0
  2 40  1  0
  3 41  1  0
  3 42  1  0
  5 43  1  0
  5 44  1  0
  8 45  1  0
  8 46  1  0
 10 47  1  0
 10 48  1  0
 10 49  1  0
 12 50  1  0
 18 51  1  0
 19 52  1  0
 20 53  1  0
 21 54  1  0
 22 55  1  0
 23 56  1  0
 24 57  1  0
 25 58  1  0
 30 59  1  0
 30 60  1  0
 32 61  1  0
 33 62  1  0
 34 63  1  0
 36 64  1  0
M  CHG  2   2   1   7  -1
M  END
>  <SMILES_raw>  (140) 
CSCC[C@@H](C(O)=O)NCC1=CN(C2=CC=C(Br)C=C2)N=C1C3=CC=C(OCC4=CC=CC(Cl)=C4)C=C3

>  <Protonation_Method>  (140) 
MolScrub

>  <Target_pH>  (140) 
7.4

$$$$
N-((1-(4-bromophenyl)-4-(4-((3-chlorobenzyl)oxy)phenyl)-1H-pyrazol-4-yl)methyl)-L-phenylalanin
     RDKit          3D

 67 71  0  0  0  0  0  0  0  0999 V2000
   -2.4433   -1.5004    2.1951 C   0  0  2  0  0  0  0  0  0  0  0  0
   -0.9886   -1.2207    1.7763 N   0  0  0  0  0  0  0  0  0  0  0  0
   -0.3269   -0.0458    2.3474 C   0  0  0  0  0  0  0  0  0  0  0  0
   -2.5107   -2.9189    2.8324 C   0  0  0  0  0  0  0  0  0  0  0  0
   -3.4235   -1.2749    1.0405 C   0  0  0  0  0  0  0  0  0  0  0  0
   -1.3242   -3.3671    2.9836 O   0  0  0  0  0  0  0  0  0  0  0  0
   -3.6335   -3.3943    3.0946 O   0  0  0  0  0  0  0  0  0  0  0  0
   -2.9837   -1.8305   -0.2952 C   0  0  0  0  0  0  0  0  0  0  0  0
   -2.6414   -0.9648   -1.3442 C   0  0  0  0  0  0  0  0  0  0  0  0
   -2.8979   -3.2136   -0.5005 C   0  0  0  0  0  0  0  0  0  0  0  0
   -2.1997   -1.4748   -2.5655 C   0  0  0  0  0  0  0  0  0  0  0  0
   -2.4519   -3.7198   -1.7215 C   0  0  0  0  0  0  0  0  0  0  0  0
   -2.0990   -2.8512   -2.7518 C   0  0  0  0  0  0  0  0  0  0  0  0
   -0.7330    1.2122    1.6740 C   0  0  0  0  0  0  0  0  0  0  0  0
   -1.7339    2.0866    2.0538 C   0  0  0  0  0  0  0  0  0  0  0  0
   -0.2135    1.7753    0.4752 C   0  0  0  0  0  0  0  0  0  0  0  0
   -1.7953    3.0849    1.1066 N   0  0  0  0  0  0  0  0  0  0  0  0
   -0.8852    2.8773    0.1277 N   0  0  0  0  0  0  0  0  0  0  0  0
    0.8627    1.2667   -0.3677 C   0  0  0  0  0  0  0  0  0  0  0  0
   -2.6691    4.2076    1.0659 C   0  0  0  0  0  0  0  0  0  0  0  0
    2.1396    1.0385    0.1568 C   0  0  0  0  0  0  0  0  0  0  0  0
    0.6232    0.9906   -1.7167 C   0  0  0  0  0  0  0  0  0  0  0  0
   -2.5720    5.1164   -0.0012 C   0  0  0  0  0  0  0  0  0  0  0  0
   -3.6233    4.4262    2.0699 C   0  0  0  0  0  0  0  0  0  0  0  0
    3.1538    0.5032   -0.6470 C   0  0  0  0  0  0  0  0  0  0  0  0
    1.6352    0.4508   -2.5141 C   0  0  0  0  0  0  0  0  0  0  0  0
   -3.4168    6.2280   -0.0630 C   0  0  0  0  0  0  0  0  0  0  0  0
   -4.4669    5.5408    2.0036 C   0  0  0  0  0  0  0  0  0  0  0  0
    2.9035    0.1994   -1.9849 C   0  0  0  0  0  0  0  0  0  0  0  0
   -4.3598    6.4352    0.9400 C   0  0  0  0  0  0  0  0  0  0  0  0
    3.7864   -0.3529   -2.8697 O   0  0  0  0  0  0  0  0  0  0  0  0
   -5.5014    7.9389    0.8602 Br  0  0  0  0  0  0  0  0  0  0  0  0
    5.1518   -0.5101   -2.4737 C   0  0  0  0  0  0  0  0  0  0  0  0
    5.3978   -1.7459   -1.6364 C   0  0  0  0  0  0  0  0  0  0  0  0
    4.6603   -2.9224   -1.8370 C   0  0  0  0  0  0  0  0  0  0  0  0
    6.4153   -1.7439   -0.6702 C   0  0  0  0  0  0  0  0  0  0  0  0
    4.9125   -4.0615   -1.0694 C   0  0  0  0  0  0  0  0  0  0  0  0
    6.6628   -2.8854    0.0936 C   0  0  0  0  0  0  0  0  0  0  0  0
    5.9142   -4.0432   -0.1006 C   0  0  0  0  0  0  0  0  0  0  0  0
    7.9045   -2.8591    1.2838 Cl  0  0  0  0  0  0  0  0  0  0  0  0
   -2.6786   -0.8061    3.0116 H   0  0  0  0  0  0  0  0  0  0  0  0
   -0.5471   -2.0831    2.1918 H   0  0  0  0  0  0  0  0  0  0  0  0
   -0.8461   -1.3512    0.7694 H   0  0  0  0  0  0  0  0  0  0  0  0
    0.7484   -0.2205    2.2534 H   0  0  0  0  0  0  0  0  0  0  0  0
   -0.5531   -0.0194    3.4195 H   0  0  0  0  0  0  0  0  0  0  0  0
   -3.5880   -0.1947    0.9351 H   0  0  0  0  0  0  0  0  0  0  0  0
   -4.4094   -1.6928    1.2791 H   0  0  0  0  0  0  0  0  0  0  0  0
   -2.7219    0.1138   -1.2234 H   0  0  0  0  0  0  0  0  0  0  0  0
   -3.1856   -3.9144    0.2842 H   0  0  0  0  0  0  0  0  0  0  0  0
   -1.9420   -0.7995   -3.3774 H   0  0  0  0  0  0  0  0  0  0  0  0
   -2.3898   -4.7953   -1.8692 H   0  0  0  0  0  0  0  0  0  0  0  0
   -1.7600   -3.2497   -3.7042 H   0  0  0  0  0  0  0  0  0  0  0  0
   -2.4001    2.0648    2.9032 H   0  0  0  0  0  0  0  0  0  0  0  0
    2.3699    1.2869    1.1903 H   0  0  0  0  0  0  0  0  0  0  0  0
   -0.3514    1.1917   -2.1558 H   0  0  0  0  0  0  0  0  0  0  0  0
   -1.8398    4.9744   -0.7948 H   0  0  0  0  0  0  0  0  0  0  0  0
   -3.7419    3.7572    2.9163 H   0  0  0  0  0  0  0  0  0  0  0  0
    4.1227    0.3317   -0.1904 H   0  0  0  0  0  0  0  0  0  0  0  0
    1.4331    0.2271   -3.5595 H   0  0  0  0  0  0  0  0  0  0  0  0
   -3.3281    6.9217   -0.8954 H   0  0  0  0  0  0  0  0  0  0  0  0
   -5.2041    5.7022    2.7867 H   0  0  0  0  0  0  0  0  0  0  0  0
    5.7345   -0.6187   -3.3961 H   0  0  0  0  0  0  0  0  0  0  0  0
    5.5194    0.4011   -1.9862 H   0  0  0  0  0  0  0  0  0  0  0  0
    3.8776   -2.9558   -2.5930 H   0  0  0  0  0  0  0  0  0  0  0  0
    7.0160   -0.8514   -0.5088 H   0  0  0  0  0  0  0  0  0  0  0  0
    4.3287   -4.9649   -1.2305 H   0  0  0  0  0  0  0  0  0  0  0  0
    6.1075   -4.9323    0.4934 H   0  0  0  0  0  0  0  0  0  0  0  0
  1  2  1  0
  2  3  1  0
  1  4  1  0
  1  5  1  0
  4  6  2  0
  4  7  1  0
  5  8  1  0
  8  9  2  0
 10  8  1  0
  9 11  1  0
 12 10  2  0
 11 13  2  0
 13 12  1  0
  3 14  1  0
 14 15  2  0
 16 14  1  0
 15 17  1  0
 18 16  2  0
 16 19  1  0
 17 20  1  0
 17 18  1  0
 19 21  2  0
 22 19  1  0
 20 23  2  0
 24 20  1  0
 21 25  1  0
 26 22  2  0
 23 27  1  0
 28 24  2  0
 25 29  2  0
 29 26  1  0
 27 30  2  0
 30 28  1  0
 29 31  1  0
 30 32  1  0
 31 33  1  0
 33 34  1  0
 34 35  2  0
 36 34  1  0
 35 37  1  0
 38 36  2  0
 37 39  2  0
 39 38  1  0
 38 40  1  0
  1 41  1  1
  2 42  1  0
  2 43  1  0
  3 44  1  0
  3 45  1  0
  5 46  1  0
  5 47  1  0
  9 48  1  0
 10 49  1  0
 11 50  1  0
 12 51  1  0
 13 52  1  0
 15 53  1  0
 21 54  1  0
 22 55  1  0
 23 56  1  0
 24 57  1  0
 25 58  1  0
 26 59  1  0
 27 60  1  0
 28 61  1  0
 33 62  1  0
 33 63  1  0
 35 64  1  0
 36 65  1  0
 37 66  1  0
 39 67  1  0
M  CHG  2   2   1   7  -1
M  END
>  <SMILES_raw>  (141) 
O=C(O)[C@H](CC1=CC=CC=C1)NCC2=CN(C3=CC=C(Br)C=C3)N=C2C4=CC=C(OCC5=CC=CC(Cl)=C5)C=C4

>  <Protonation_Method>  (141) 
MolScrub

>  <Target_pH>  (141) 
7.4

$$$$
N-((1-(4-bromophenyl)-3-(4-((3-chlorobenzyl)oxy)phenyl)-1H-pyrazol-4-yl)methyl)-L-tryptophan
     RDKit          3D

 71 76  0  0  0  0  0  0  0  0999 V2000
   -3.1241    1.2338   -0.4155 C   0  0  2  0  0  0  0  0  0  0  0  0
   -2.5454    0.3718    0.7182 N   0  0  0  0  0  0  0  0  0  0  0  0
   -2.2878    1.0910    1.9861 C   0  0  0  0  0  0  0  0  0  0  0  0
   -4.5679    1.7205   -0.1019 C   0  0  0  0  0  0  0  0  0  0  0  0
   -3.1561    0.4432   -1.7330 C   0  0  0  0  0  0  0  0  0  0  0  0
   -5.1197    1.0071    0.7906 O   0  0  0  0  0  0  0  0  0  0  0  0
   -4.9448    2.7608   -0.6884 O   0  0  0  0  0  0  0  0  0  0  0  0
   -3.4832   -1.0147   -1.5751 C   0  0  0  0  0  0  0  0  0  0  0  0
   -4.7320   -1.5441   -1.3245 C   0  0  0  0  0  0  0  0  0  0  0  0
   -2.5669   -2.1151   -1.6035 C   0  0  0  0  0  0  0  0  0  0  0  0
   -4.6137   -2.9002   -1.1984 N   0  0  0  0  0  0  0  0  0  0  0  0
   -3.3011   -3.2725   -1.3500 C   0  0  0  0  0  0  0  0  0  0  0  0
   -1.1774   -2.2320   -1.8018 C   0  0  0  0  0  0  0  0  0  0  0  0
   -2.7187   -4.5416   -1.2804 C   0  0  0  0  0  0  0  0  0  0  0  0
   -0.5766   -3.4939   -1.7285 C   0  0  0  0  0  0  0  0  0  0  0  0
   -1.3385   -4.6304   -1.4707 C   0  0  0  0  0  0  0  0  0  0  0  0
   -1.3037    2.1960    1.8778 C   0  0  0  0  0  0  0  0  0  0  0  0
   -1.5470    3.5441    2.0496 C   0  0  0  0  0  0  0  0  0  0  0  0
    0.0677    2.1368    1.5139 C   0  0  0  0  0  0  0  0  0  0  0  0
   -0.3693    4.2147    1.8222 N   0  0  0  0  0  0  0  0  0  0  0  0
    0.6296    3.3498    1.5211 N   0  0  0  0  0  0  0  0  0  0  0  0
    0.8201    0.9662    1.0812 C   0  0  0  0  0  0  0  0  0  0  0  0
   -0.1405    5.6187    1.8471 C   0  0  0  0  0  0  0  0  0  0  0  0
    1.3869    0.9500   -0.1995 C   0  0  0  0  0  0  0  0  0  0  0  0
    0.9290   -0.1639    1.8945 C   0  0  0  0  0  0  0  0  0  0  0  0
   -1.2086    6.5220    1.9106 C   0  0  0  0  0  0  0  0  0  0  0  0
    1.1749    6.1067    1.7831 C   0  0  0  0  0  0  0  0  0  0  0  0
    2.0379   -0.1913   -0.6725 C   0  0  0  0  0  0  0  0  0  0  0  0
    1.5735   -1.3044    1.4149 C   0  0  0  0  0  0  0  0  0  0  0  0
   -0.9650    7.8982    1.9156 C   0  0  0  0  0  0  0  0  0  0  0  0
    1.4148    7.4814    1.8077 C   0  0  0  0  0  0  0  0  0  0  0  0
    2.1349   -1.3227    0.1358 C   0  0  0  0  0  0  0  0  0  0  0  0
    0.3448    8.3709    1.8577 C   0  0  0  0  0  0  0  0  0  0  0  0
    2.7217   -2.5018   -0.2118 O   0  0  0  0  0  0  0  0  0  0  0  0
    0.6717   10.2328    1.8765 Br  0  0  0  0  0  0  0  0  0  0  0  0
    3.6136   -2.4779   -1.3272 C   0  0  0  0  0  0  0  0  0  0  0  0
    4.4481   -3.7322   -1.2645 C   0  0  0  0  0  0  0  0  0  0  0  0
    4.2691   -4.7706   -2.1900 C   0  0  0  0  0  0  0  0  0  0  0  0
    5.4031   -3.8812   -0.2471 C   0  0  0  0  0  0  0  0  0  0  0  0
    5.0341   -5.9349   -2.1004 C   0  0  0  0  0  0  0  0  0  0  0  0
    6.1585   -5.0475   -0.1591 C   0  0  0  0  0  0  0  0  0  0  0  0
    5.9775   -6.0757   -1.0826 C   0  0  0  0  0  0  0  0  0  0  0  0
    7.3211   -5.2168    1.0987 Cl  0  0  0  0  0  0  0  0  0  0  0  0
   -2.4630    2.0982   -0.5369 H   0  0  0  0  0  0  0  0  0  0  0  0
   -1.7699   -0.2175    0.4059 H   0  0  0  0  0  0  0  0  0  0  0  0
   -3.3572   -0.2439    0.9165 H   0  0  0  0  0  0  0  0  0  0  0  0
   -1.9356    0.3354    2.6975 H   0  0  0  0  0  0  0  0  0  0  0  0
   -3.2427    1.4610    2.3698 H   0  0  0  0  0  0  0  0  0  0  0  0
   -3.8584    0.8954   -2.4475 H   0  0  0  0  0  0  0  0  0  0  0  0
   -2.1690    0.5286   -2.2047 H   0  0  0  0  0  0  0  0  0  0  0  0
   -5.6983   -1.0678   -1.2050 H   0  0  0  0  0  0  0  0  0  0  0  0
   -5.3782   -3.5369   -1.0153 H   0  0  0  0  0  0  0  0  0  0  0  0
   -0.5718   -1.3573   -2.0203 H   0  0  0  0  0  0  0  0  0  0  0  0
   -3.3126   -5.4289   -1.0858 H   0  0  0  0  0  0  0  0  0  0  0  0
    0.4963   -3.5881   -1.8759 H   0  0  0  0  0  0  0  0  0  0  0  0
   -0.8594   -5.6066   -1.4184 H   0  0  0  0  0  0  0  0  0  0  0  0
   -2.4599    4.0610    2.3072 H   0  0  0  0  0  0  0  0  0  0  0  0
    1.3181    1.8304   -0.8379 H   0  0  0  0  0  0  0  0  0  0  0  0
    0.5345   -0.1686    2.9071 H   0  0  0  0  0  0  0  0  0  0  0  0
   -2.2437    6.1948    1.9334 H   0  0  0  0  0  0  0  0  0  0  0  0
    2.0229    5.4281    1.7296 H   0  0  0  0  0  0  0  0  0  0  0  0
    2.4465   -0.1676   -1.6773 H   0  0  0  0  0  0  0  0  0  0  0  0
    1.6555   -2.1846    2.0494 H   0  0  0  0  0  0  0  0  0  0  0  0
   -1.8019    8.5910    1.9316 H   0  0  0  0  0  0  0  0  0  0  0  0
    2.4386    7.8407    1.7835 H   0  0  0  0  0  0  0  0  0  0  0  0
    3.0375   -2.4432   -2.2617 H   0  0  0  0  0  0  0  0  0  0  0  0
    4.2907   -1.6143   -1.2864 H   0  0  0  0  0  0  0  0  0  0  0  0
    3.5308   -4.6814   -2.9838 H   0  0  0  0  0  0  0  0  0  0  0  0
    5.5469   -3.0875    0.4829 H   0  0  0  0  0  0  0  0  0  0  0  0
    4.8911   -6.7380   -2.8196 H   0  0  0  0  0  0  0  0  0  0  0  0
    6.5676   -6.9836   -1.0145 H   0  0  0  0  0  0  0  0  0  0  0  0
  1  2  1  0
  2  3  1  0
  1  4  1  0
  1  5  1  0
  4  6  2  0
  4  7  1  0
  5  8  1  0
  8  9  2  0
 10  8  1  0
  9 11  1  0
 12 10  2  0
 10 13  1  0
 11 12  1  0
 14 12  1  0
 13 15  2  0
 16 14  2  0
 15 16  1  0
  3 17  1  0
 17 18  2  0
 19 17  1  0
 18 20  1  0
 21 19  2  0
 19 22  1  0
 20 23  1  0
 20 21  1  0
 22 24  2  0
 25 22  1  0
 23 26  2  0
 27 23  1  0
 24 28  1  0
 29 25  2  0
 26 30  1  0
 31 27  2  0
 28 32  2  0
 32 29  1  0
 30 33  2  0
 33 31  1  0
 32 34  1  0
 33 35  1  0
 34 36  1  0
 36 37  1  0
 37 38  2  0
 39 37  1  0
 38 40  1  0
 41 39  2  0
 40 42  2  0
 42 41  1  0
 41 43  1  0
  1 44  1  6
  2 45  1  0
  2 46  1  0
  3 47  1  0
  3 48  1  0
  5 49  1  0
  5 50  1  0
  9 51  1  0
 11 52  1  0
 13 53  1  0
 14 54  1  0
 15 55  1  0
 16 56  1  0
 18 57  1  0
 24 58  1  0
 25 59  1  0
 26 60  1  0
 27 61  1  0
 28 62  1  0
 29 63  1  0
 30 64  1  0
 31 65  1  0
 36 66  1  0
 36 67  1  0
 38 68  1  0
 39 69  1  0
 40 70  1  0
 42 71  1  0
M  CHG  2   2   1   7  -1
M  END
>  <SMILES_raw>  (142) 
O=C(O)[C@H](CC1=CNC2=C1C=CC=C2)NCC3=CN(C4=CC=C(Br)C=C4)N=C3C5=CC=C(OCC6=CC=CC(Cl)=C6)C=C5

>  <Protonation_Method>  (142) 
MolScrub

>  <Target_pH>  (142) 
7.4

$$$$
N-((1-(4-bromophenyl)-4-(4-((3-chlorobenzyl)oxy)phenyl)-1H-pyrazol-4-yl)methyl)-L-tyrosin
     RDKit          3D

 70 74  0  0  0  0  0  0  0  0999 V2000
   -3.2596   -0.3009   -1.1983 C   0  0  2  0  0  0  0  0  0  0  0  0
   -1.8478    0.1436   -0.7291 N   0  0  0  0  0  0  0  0  0  0  0  0
   -1.7416    1.5394   -0.1900 C   0  0  0  0  0  0  0  0  0  0  0  0
   -3.6422    0.5141   -2.4710 C   0  0  0  0  0  0  0  0  0  0  0  0
   -4.2370   -0.3040   -0.0197 C   0  0  0  0  0  0  0  0  0  0  0  0
   -2.5815    0.8363   -3.1028 O   0  0  0  0  0  0  0  0  0  0  0  0
   -4.8446    0.7925   -2.6572 O   0  0  0  0  0  0  0  0  0  0  0  0
   -5.1021   -1.5454    0.0007 C   0  0  0  0  0  0  0  0  0  0  0  0
   -6.1938   -1.6572   -0.8725 C   0  0  0  0  0  0  0  0  0  0  0  0
   -4.8094   -2.6171    0.8611 C   0  0  0  0  0  0  0  0  0  0  0  0
   -6.9811   -2.8101   -0.8806 C   0  0  0  0  0  0  0  0  0  0  0  0
   -5.6006   -3.7697    0.8555 C   0  0  0  0  0  0  0  0  0  0  0  0
   -6.6810   -3.8548   -0.0171 C   0  0  0  0  0  0  0  0  0  0  0  0
   -7.4790   -4.9617   -0.0555 O   0  0  0  0  0  0  0  0  0  0  0  0
   -0.9546    1.5753    1.1182 C   0  0  0  0  0  0  0  0  0  0  0  0
    0.5240    1.4344    0.8484 C   0  0  0  0  0  0  0  0  0  0  0  0
   -0.9462    3.0013    1.6818 C   0  0  0  0  0  0  0  0  0  0  0  0
    1.1409    0.1286    0.5648 C   0  0  0  0  0  0  0  0  0  0  0  0
    1.1844    2.5479    0.8200 N   0  0  0  0  0  0  0  0  0  0  0  0
    0.3179    3.5266    1.2032 N   0  0  0  0  0  0  0  0  0  0  0  0
    0.7774   -1.0102    1.2871 C   0  0  0  0  0  0  0  0  0  0  0  0
    2.0935    0.0418   -0.4534 C   0  0  0  0  0  0  0  0  0  0  0  0
    0.7285    4.8536    1.3066 C   0  0  0  0  0  0  0  0  0  0  0  0
    1.3552   -2.2404    0.9647 C   0  0  0  0  0  0  0  0  0  0  0  0
    2.6648   -1.1954   -0.7725 C   0  0  0  0  0  0  0  0  0  0  0  0
    1.9765    5.2604    0.8008 C   0  0  0  0  0  0  0  0  0  0  0  0
   -0.0760    5.8453    1.8940 C   0  0  0  0  0  0  0  0  0  0  0  0
    2.2954   -2.3436   -0.0684 C   0  0  0  0  0  0  0  0  0  0  0  0
    2.4006    6.5930    0.8592 C   0  0  0  0  0  0  0  0  0  0  0  0
    0.3393    7.1810    1.9610 C   0  0  0  0  0  0  0  0  0  0  0  0
    2.7762   -3.6066   -0.2674 O   0  0  0  0  0  0  0  0  0  0  0  0
    1.5762    7.5489    1.4383 C   0  0  0  0  0  0  0  0  0  0  0  0
    3.7099   -3.8378   -1.3302 C   0  0  0  0  0  0  0  0  0  0  0  0
    2.1296    9.3568    1.5013 Br  0  0  0  0  0  0  0  0  0  0  0  0
    5.1226   -3.4214   -0.9794 C   0  0  0  0  0  0  0  0  0  0  0  0
    5.6438   -3.6354    0.3070 C   0  0  0  0  0  0  0  0  0  0  0  0
    5.9482   -2.8427   -1.9563 C   0  0  0  0  0  0  0  0  0  0  0  0
    6.9481   -3.2455    0.6204 C   0  0  0  0  0  0  0  0  0  0  0  0
    7.2511   -2.4547   -1.6365 C   0  0  0  0  0  0  0  0  0  0  0  0
    7.7524   -2.6484   -0.3511 C   0  0  0  0  0  0  0  0  0  0  0  0
    8.2429   -1.7259   -2.8397 Cl  0  0  0  0  0  0  0  0  0  0  0  0
   -3.0839   -1.3274   -1.5487 H   0  0  0  0  0  0  0  0  0  0  0  0
   -1.4096    0.2156   -1.6792 H   0  0  0  0  0  0  0  0  0  0  0  0
   -1.3649   -0.6074   -0.2336 H   0  0  0  0  0  0  0  0  0  0  0  0
   -2.7586    1.9154   -0.0285 H   0  0  0  0  0  0  0  0  0  0  0  0
   -1.2734    2.1449   -0.9779 H   0  0  0  0  0  0  0  0  0  0  0  0
   -3.6902   -0.2679    0.9340 H   0  0  0  0  0  0  0  0  0  0  0  0
   -4.8828    0.5830   -0.0286 H   0  0  0  0  0  0  0  0  0  0  0  0
   -6.4421   -0.8480   -1.5604 H   0  0  0  0  0  0  0  0  0  0  0  0
   -3.9670   -2.5672    1.5475 H   0  0  0  0  0  0  0  0  0  0  0  0
   -7.8266   -2.8858   -1.5597 H   0  0  0  0  0  0  0  0  0  0  0  0
   -5.3597   -4.5898    1.5271 H   0  0  0  0  0  0  0  0  0  0  0  0
   -7.1695   -5.5873    0.6187 H   0  0  0  0  0  0  0  0  0  0  0  0
   -1.3331    0.8589    1.8520 H   0  0  0  0  0  0  0  0  0  0  0  0
   -0.9523    2.9733    2.7762 H   0  0  0  0  0  0  0  0  0  0  0  0
   -1.8016    3.5901    1.3358 H   0  0  0  0  0  0  0  0  0  0  0  0
    0.0814   -0.9588    2.1206 H   0  0  0  0  0  0  0  0  0  0  0  0
    2.3984    0.9323   -1.0050 H   0  0  0  0  0  0  0  0  0  0  0  0
    1.0886   -3.1310    1.5337 H   0  0  0  0  0  0  0  0  0  0  0  0
    3.4076   -1.2170   -1.5675 H   0  0  0  0  0  0  0  0  0  0  0  0
    2.6299    4.5273    0.3322 H   0  0  0  0  0  0  0  0  0  0  0  0
   -1.0474    5.5987    2.3152 H   0  0  0  0  0  0  0  0  0  0  0  0
    3.3658    6.8656    0.4392 H   0  0  0  0  0  0  0  0  0  0  0  0
   -0.3130    7.9236    2.4145 H   0  0  0  0  0  0  0  0  0  0  0  0
    3.3534   -3.3803   -2.2625 H   0  0  0  0  0  0  0  0  0  0  0  0
    3.7216   -4.9206   -1.5104 H   0  0  0  0  0  0  0  0  0  0  0  0
    5.0294   -4.1027    1.0771 H   0  0  0  0  0  0  0  0  0  0  0  0
    5.5768   -2.6872   -2.9654 H   0  0  0  0  0  0  0  0  0  0  0  0
    7.3374   -3.3988    1.6237 H   0  0  0  0  0  0  0  0  0  0  0  0
    8.7644   -2.3436   -0.0991 H   0  0  0  0  0  0  0  0  0  0  0  0
  1  2  1  0
  2  3  1  0
  1  4  1  0
  5  1  1  0
  4  6  2  0
  4  7  1  0
  8  5  1  0
  9  8  2  0
  8 10  1  0
 11  9  1  0
 10 12  2  0
 13 11  2  0
 12 13  1  0
 14 13  1  0
  3 15  1  0
 15 16  1  0
 17 15  1  0
 16 18  1  0
 16 19  2  0
 20 17  1  0
 18 21  2  0
 22 18  1  0
 19 20  1  0
 20 23  1  0
 21 24  1  0
 25 22  2  0
 23 26  2  0
 27 23  1  0
 24 28  2  0
 28 25  1  0
 26 29  1  0
 30 27  2  0
 28 31  1  0
 29 32  2  0
 32 30  1  0
 31 33  1  0
 32 34  1  0
 33 35  1  0
 35 36  2  0
 37 35  1  0
 36 38  1  0
 39 37  2  0
 38 40  2  0
 40 39  1  0
 39 41  1  0
  1 42  1  6
  2 43  1  0
  2 44  1  0
  3 45  1  0
  3 46  1  0
  5 47  1  0
  5 48  1  0
  9 49  1  0
 10 50  1  0
 11 51  1  0
 12 52  1  0
 14 53  1  0
 15 54  1  0
 17 55  1  0
 17 56  1  0
 21 57  1  0
 22 58  1  0
 24 59  1  0
 25 60  1  0
 26 61  1  0
 27 62  1  0
 29 63  1  0
 30 64  1  0
 33 65  1  0
 33 66  1  0
 36 67  1  0
 37 68  1  0
 38 69  1  0
 40 70  1  0
M  CHG  2   2   1   7  -1
M  END
>  <SMILES_raw>  (143) 
OC1=CC=C(C=C1)C[C@@H](C(O)=O)NCC2C(C3=CC=C(OCC4=CC=CC(Cl)=C4)C=C3)=NN(C5=CC=C(Br)C=C5)C2

>  <Protonation_Method>  (143) 
MolScrub

>  <Target_pH>  (143) 
7.4

$$$$
N-((1-(4-bromophenyl)-3-(4-((3-chlorobenzyl)oxy)phenyl)-1H-pyrazol-4-yl)methyl)-L-valin
     RDKit          3D

 63 66  0  0  0  0  0  0  0  0999 V2000
   -3.4780   -1.6745   -0.4908 C   0  0  2  0  0  0  0  0  0  0  0  0
   -2.4580   -1.4769    0.6377 N   0  0  0  0  0  0  0  0  0  0  0  0
   -2.7591   -0.3544    1.5526 C   0  0  0  0  0  0  0  0  0  0  0  0
   -4.6768   -2.5200    0.0539 C   0  0  0  0  0  0  0  0  0  0  0  0
   -2.8243   -2.3711   -1.6989 C   0  0  0  0  0  0  0  0  0  0  0  0
   -4.3755   -3.0066    1.1940 O   0  0  0  0  0  0  0  0  0  0  0  0
   -5.7181   -2.5544   -0.6343 O   0  0  0  0  0  0  0  0  0  0  0  0
   -2.1660   -3.7130   -1.3570 C   0  0  0  0  0  0  0  0  0  0  0  0
   -1.8077   -1.4568   -2.3894 C   0  0  0  0  0  0  0  0  0  0  0  0
   -2.4116    0.9731    0.9849 C   0  0  0  0  0  0  0  0  0  0  0  0
   -3.2874    1.9931    0.6623 C   0  0  0  0  0  0  0  0  0  0  0  0
   -1.1337    1.4823    0.6205 C   0  0  0  0  0  0  0  0  0  0  0  0
   -2.5471    3.0293    0.1397 N   0  0  0  0  0  0  0  0  0  0  0  0
   -1.2342    2.7036    0.0851 N   0  0  0  0  0  0  0  0  0  0  0  0
    0.1663    0.8235    0.7153 C   0  0  0  0  0  0  0  0  0  0  0  0
   -3.0054    4.3000   -0.3107 C   0  0  0  0  0  0  0  0  0  0  0  0
    0.5922    0.2305    1.9069 C   0  0  0  0  0  0  0  0  0  0  0  0
    1.0035    0.7699   -0.4069 C   0  0  0  0  0  0  0  0  0  0  0  0
   -2.0779    5.2336   -0.8039 C   0  0  0  0  0  0  0  0  0  0  0  0
   -4.3636    4.6433   -0.2604 C   0  0  0  0  0  0  0  0  0  0  0  0
    1.8213   -0.4332    1.9587 C   0  0  0  0  0  0  0  0  0  0  0  0
    2.2362    0.1083   -0.3506 C   0  0  0  0  0  0  0  0  0  0  0  0
   -2.5040    6.4923   -1.2382 C   0  0  0  0  0  0  0  0  0  0  0  0
   -4.7850    5.9057   -0.6938 C   0  0  0  0  0  0  0  0  0  0  0  0
    2.6472   -0.5002    0.8338 C   0  0  0  0  0  0  0  0  0  0  0  0
   -3.8546    6.8233   -1.1788 C   0  0  0  0  0  0  0  0  0  0  0  0
    3.8145   -1.1814    1.0291 O   0  0  0  0  0  0  0  0  0  0  0  0
   -4.4311    8.5283   -1.7554 Br  0  0  0  0  0  0  0  0  0  0  0  0
    4.7573   -1.1848   -0.0414 C   0  0  0  0  0  0  0  0  0  0  0  0
    5.9777   -1.9372    0.4249 C   0  0  0  0  0  0  0  0  0  0  0  0
    7.0175   -1.2684    1.0851 C   0  0  0  0  0  0  0  0  0  0  0  0
    6.0687   -3.3246    0.2442 C   0  0  0  0  0  0  0  0  0  0  0  0
    8.1379   -1.9680    1.5333 C   0  0  0  0  0  0  0  0  0  0  0  0
    7.1906   -4.0176    0.6934 C   0  0  0  0  0  0  0  0  0  0  0  0
    8.2263   -3.3447    1.3344 C   0  0  0  0  0  0  0  0  0  0  0  0
    7.2939   -5.7180    0.4552 Cl  0  0  0  0  0  0  0  0  0  0  0  0
   -3.8420   -0.6802   -0.7791 H   0  0  0  0  0  0  0  0  0  0  0  0
   -2.6855   -2.3306    1.2019 H   0  0  0  0  0  0  0  0  0  0  0  0
   -1.4817   -1.5361    0.3517 H   0  0  0  0  0  0  0  0  0  0  0  0
   -3.8229   -0.4061    1.8130 H   0  0  0  0  0  0  0  0  0  0  0  0
   -2.1938   -0.5424    2.4710 H   0  0  0  0  0  0  0  0  0  0  0  0
   -3.6159   -2.5800   -2.4317 H   0  0  0  0  0  0  0  0  0  0  0  0
   -1.3269   -3.5923   -0.6673 H   0  0  0  0  0  0  0  0  0  0  0  0
   -1.7824   -4.1925   -2.2621 H   0  0  0  0  0  0  0  0  0  0  0  0
   -2.8823   -4.4055   -0.9044 H   0  0  0  0  0  0  0  0  0  0  0  0
   -2.2518   -0.4854   -2.6321 H   0  0  0  0  0  0  0  0  0  0  0  0
   -1.4619   -1.9065   -3.3270 H   0  0  0  0  0  0  0  0  0  0  0  0
   -0.9256   -1.2828   -1.7671 H   0  0  0  0  0  0  0  0  0  0  0  0
   -4.3620    2.0504    0.7606 H   0  0  0  0  0  0  0  0  0  0  0  0
   -0.0009    0.3001    2.8148 H   0  0  0  0  0  0  0  0  0  0  0  0
    0.6996    1.2494   -1.3368 H   0  0  0  0  0  0  0  0  0  0  0  0
   -1.0151    4.9991   -0.8484 H   0  0  0  0  0  0  0  0  0  0  0  0
   -5.1228    3.9603    0.1090 H   0  0  0  0  0  0  0  0  0  0  0  0
    2.1509   -0.8881    2.8908 H   0  0  0  0  0  0  0  0  0  0  0  0
    2.8468    0.0938   -1.2480 H   0  0  0  0  0  0  0  0  0  0  0  0
   -1.7736    7.2076   -1.6105 H   0  0  0  0  0  0  0  0  0  0  0  0
   -5.8387    6.1642   -0.6418 H   0  0  0  0  0  0  0  0  0  0  0  0
    5.0425   -0.1603   -0.3134 H   0  0  0  0  0  0  0  0  0  0  0  0
    4.3385   -1.6834   -0.9250 H   0  0  0  0  0  0  0  0  0  0  0  0
    6.9561   -0.1961    1.2594 H   0  0  0  0  0  0  0  0  0  0  0  0
    5.2614   -3.8647   -0.2413 H   0  0  0  0  0  0  0  0  0  0  0  0
    8.9395   -1.4409    2.0420 H   0  0  0  0  0  0  0  0  0  0  0  0
    9.0984   -3.8854    1.6872 H   0  0  0  0  0  0  0  0  0  0  0  0
  1  2  1  0
  2  3  1  0
  1  4  1  0
  5  1  1  0
  4  6  2  0
  4  7  1  0
  8  5  1  0
  5  9  1  0
  3 10  1  0
 10 11  2  0
 12 10  1  0
 11 13  1  0
 14 12  2  0
 12 15  1  0
 13 16  1  0
 13 14  1  0
 15 17  2  0
 18 15  1  0
 16 19  2  0
 20 16  1  0
 17 21  1  0
 22 18  2  0
 19 23  1  0
 24 20  2  0
 21 25  2  0
 25 22  1  0
 23 26  2  0
 26 24  1  0
 25 27  1  0
 26 28  1  0
 27 29  1  0
 29 30  1  0
 30 31  2  0
 32 30  1  0
 31 33  1  0
 34 32  2  0
 33 35  2  0
 35 34  1  0
 34 36  1  0
  1 37  1  6
  2 38  1  0
  2 39  1  0
  3 40  1  0
  3 41  1  0
  5 42  1  0
  8 43  1  0
  8 44  1  0
  8 45  1  0
  9 46  1  0
  9 47  1  0
  9 48  1  0
 11 49  1  0
 17 50  1  0
 18 51  1  0
 19 52  1  0
 20 53  1  0
 21 54  1  0
 22 55  1  0
 23 56  1  0
 24 57  1  0
 29 58  1  0
 29 59  1  0
 31 60  1  0
 32 61  1  0
 33 62  1  0
 35 63  1  0
M  CHG  2   2   1   7  -1
M  END
>  <SMILES_raw>  (144) 
CC(C)[C@@H](C(O)=O)NCC1=CN(C2=CC=C(Br)C=C2)N=C1C3=CC=C(OCC4=CC=CC(Cl)=C4)C=C3

>  <Protonation_Method>  (144) 
MolScrub

>  <Target_pH>  (144) 
7.4

$$$$
N-((1-(4-bromophenyl)-3-(4-((4-chlorobenzyl)oxy)phenyl)-1H-pyrazol-4-yl)methyl)-L-alanin
     RDKit          3D

 57 60  0  0  0  0  0  0  0  0999 V2000
   -2.1946    3.9236    0.5691 C   0  0  2  0  0  0  0  0  0  0  0  0
   -2.1547    2.4422    0.1964 N   0  0  0  0  0  0  0  0  0  0  0  0
   -2.4398    1.5298    1.3236 C   0  0  0  0  0  0  0  0  0  0  0  0
   -3.6647    4.4398    0.4851 C   0  0  0  0  0  0  0  0  0  0  0  0
   -1.3675    4.6903   -0.4496 C   0  0  0  0  0  0  0  0  0  0  0  0
   -4.3995    3.5636   -0.0786 O   0  0  0  0  0  0  0  0  0  0  0  0
   -3.9150    5.5520    0.9941 O   0  0  0  0  0  0  0  0  0  0  0  0
   -2.6416    0.1435    0.8371 C   0  0  0  0  0  0  0  0  0  0  0  0
   -3.8477   -0.4882    0.6037 C   0  0  0  0  0  0  0  0  0  0  0  0
   -1.6647   -0.8100    0.4423 C   0  0  0  0  0  0  0  0  0  0  0  0
   -3.5718   -1.7404    0.1041 N   0  0  0  0  0  0  0  0  0  0  0  0
   -2.2354   -1.9299   -0.0119 N   0  0  0  0  0  0  0  0  0  0  0  0
   -0.2152   -0.6549    0.4172 C   0  0  0  0  0  0  0  0  0  0  0  0
   -4.4902   -2.7552   -0.2868 C   0  0  0  0  0  0  0  0  0  0  0  0
    0.4945   -0.3084    1.5702 C   0  0  0  0  0  0  0  0  0  0  0  0
    0.4810   -0.8396   -0.7840 C   0  0  0  0  0  0  0  0  0  0  0  0
   -3.9989   -3.9823   -0.7632 C   0  0  0  0  0  0  0  0  0  0  0  0
   -5.8758   -2.5535   -0.2078 C   0  0  0  0  0  0  0  0  0  0  0  0
    1.8787   -0.1233    1.5091 C   0  0  0  0  0  0  0  0  0  0  0  0
    1.8671   -0.6546   -0.8414 C   0  0  0  0  0  0  0  0  0  0  0  0
   -4.8808   -4.9935   -1.1543 C   0  0  0  0  0  0  0  0  0  0  0  0
   -6.7549   -3.5675   -0.6048 C   0  0  0  0  0  0  0  0  0  0  0  0
    2.5712   -0.2915    0.3064 C   0  0  0  0  0  0  0  0  0  0  0  0
   -6.2544   -4.7803   -1.0747 C   0  0  0  0  0  0  0  0  0  0  0  0
    3.9178   -0.0753    0.3911 O   0  0  0  0  0  0  0  0  0  0  0  0
   -7.4478   -6.1453   -1.6076 Br  0  0  0  0  0  0  0  0  0  0  0  0
    4.6908   -0.3067   -0.7840 C   0  0  0  0  0  0  0  0  0  0  0  0
    6.1418   -0.0697   -0.4429 C   0  0  0  0  0  0  0  0  0  0  0  0
    6.8993   -1.0816    0.1663 C   0  0  0  0  0  0  0  0  0  0  0  0
    6.7427    1.1718   -0.6970 C   0  0  0  0  0  0  0  0  0  0  0  0
    8.2393   -0.8639    0.4940 C   0  0  0  0  0  0  0  0  0  0  0  0
    8.0831    1.3890   -0.3691 C   0  0  0  0  0  0  0  0  0  0  0  0
    8.8260    0.3695    0.2226 C   0  0  0  0  0  0  0  0  0  0  0  0
   10.4771    0.6375    0.6244 Cl  0  0  0  0  0  0  0  0  0  0  0  0
   -1.7784    4.0264    1.5757 H   0  0  0  0  0  0  0  0  0  0  0  0
   -3.0135    2.3940   -0.4021 H   0  0  0  0  0  0  0  0  0  0  0  0
   -1.3493    2.1726   -0.3675 H   0  0  0  0  0  0  0  0  0  0  0  0
   -1.5992    1.6000    2.0193 H   0  0  0  0  0  0  0  0  0  0  0  0
   -3.3370    1.8926    1.8374 H   0  0  0  0  0  0  0  0  0  0  0  0
   -1.3470    5.7581   -0.2073 H   0  0  0  0  0  0  0  0  0  0  0  0
   -0.3317    4.3333   -0.4660 H   0  0  0  0  0  0  0  0  0  0  0  0
   -1.7815    4.5902   -1.4598 H   0  0  0  0  0  0  0  0  0  0  0  0
   -4.8600   -0.1341    0.7412 H   0  0  0  0  0  0  0  0  0  0  0  0
   -0.0076   -0.2039    2.5289 H   0  0  0  0  0  0  0  0  0  0  0  0
   -0.0548   -1.1371   -1.6848 H   0  0  0  0  0  0  0  0  0  0  0  0
   -2.9283   -4.1688   -0.8341 H   0  0  0  0  0  0  0  0  0  0  0  0
   -6.3096   -1.6245    0.1509 H   0  0  0  0  0  0  0  0  0  0  0  0
    2.4288    0.1405    2.4109 H   0  0  0  0  0  0  0  0  0  0  0  0
    2.3597   -0.8096   -1.7960 H   0  0  0  0  0  0  0  0  0  0  0  0
   -4.4844   -5.9381   -1.5181 H   0  0  0  0  0  0  0  0  0  0  0  0
   -7.8279   -3.3998   -0.5442 H   0  0  0  0  0  0  0  0  0  0  0  0
    4.5695   -1.3390   -1.1347 H   0  0  0  0  0  0  0  0  0  0  0  0
    4.3858    0.3785   -1.5842 H   0  0  0  0  0  0  0  0  0  0  0  0
    6.4463   -2.0443    0.3940 H   0  0  0  0  0  0  0  0  0  0  0  0
    6.1693    1.9788   -1.1485 H   0  0  0  0  0  0  0  0  0  0  0  0
    8.8159   -1.6563    0.9633 H   0  0  0  0  0  0  0  0  0  0  0  0
    8.5394    2.3534   -0.5732 H   0  0  0  0  0  0  0  0  0  0  0  0
  1  2  1  0
  2  3  1  0
  1  4  1  0
  5  1  1  0
  4  6  2  0
  4  7  1  0
  3  8  1  0
  8  9  2  0
 10  8  1  0
  9 11  1  0
 12 10  2  0
 10 13  1  0
 11 14  1  0
 11 12  1  0
 13 15  2  0
 16 13  1  0
 14 17  2  0
 18 14  1  0
 15 19  1  0
 20 16  2  0
 17 21  1  0
 22 18  2  0
 19 23  2  0
 23 20  1  0
 21 24  2  0
 24 22  1  0
 23 25  1  0
 24 26  1  0
 25 27  1  0
 27 28  1  0
 28 29  2  0
 30 28  1  0
 29 31  1  0
 32 30  2  0
 31 33  2  0
 33 32  1  0
 33 34  1  0
  1 35  1  1
  2 36  1  0
  2 37  1  0
  3 38  1  0
  3 39  1  0
  5 40  1  0
  5 41  1  0
  5 42  1  0
  9 43  1  0
 15 44  1  0
 16 45  1  0
 17 46  1  0
 18 47  1  0
 19 48  1  0
 20 49  1  0
 21 50  1  0
 22 51  1  0
 27 52  1  0
 27 53  1  0
 29 54  1  0
 30 55  1  0
 31 56  1  0
 32 57  1  0
M  CHG  2   2   1   7  -1
M  END
>  <SMILES_raw>  (145) 
C[C@@H](C(O)=O)NCC1=CN(C2=CC=C(Br)C=C2)N=C1C3=CC=C(OCC4=CC=C(Cl)C=C4)C=C3

>  <Protonation_Method>  (145) 
MolScrub

>  <Target_pH>  (145) 
7.4

$$$$
N-((1-(4-bromophenyl)-3-(4-((4-chlorobenzyl)oxy)phenyl)-1H-pyrazol-4-yl)methyl)-L-aspartic acid
     RDKit          3D

 59 62  0  0  0  0  0  0  0  0999 V2000
   -4.2137   -3.0405    0.6976 C   0  0  2  0  0  0  0  0  0  0  0  0
   -3.3615   -1.7698    0.7570 N   0  0  0  0  0  0  0  0  0  0  0  0
   -2.7104   -1.4108   -0.5016 C   0  0  0  0  0  0  0  0  0  0  0  0
   -5.6329   -2.6892    0.1448 C   0  0  0  0  0  0  0  0  0  0  0  0
   -4.3533   -3.6081    2.1045 C   0  0  0  0  0  0  0  0  0  0  0  0
   -5.8604   -1.4334    0.2028 O   0  0  0  0  0  0  0  0  0  0  0  0
   -6.3099   -3.6215   -0.3496 O   0  0  0  0  0  0  0  0  0  0  0  0
   -2.9664   -3.9251    2.6403 C   0  0  0  0  0  0  0  0  0  0  0  0
   -2.1420   -2.9591    2.5288 O   0  0  0  0  0  0  0  0  0  0  0  0
   -2.7902   -5.0754    3.1075 O   0  0  0  0  0  0  0  0  0  0  0  0
   -2.2374   -0.0037   -0.4799 C   0  0  0  0  0  0  0  0  0  0  0  0
   -3.0350    1.1235   -0.5468 C   0  0  0  0  0  0  0  0  0  0  0  0
   -0.9104    0.5039   -0.4129 C   0  0  0  0  0  0  0  0  0  0  0  0
   -2.2061    2.2162   -0.5408 N   0  0  0  0  0  0  0  0  0  0  0  0
   -0.9054    1.8425   -0.4999 N   0  0  0  0  0  0  0  0  0  0  0  0
    0.3495   -0.2307   -0.3046 C   0  0  0  0  0  0  0  0  0  0  0  0
   -2.5678    3.5928   -0.5938 C   0  0  0  0  0  0  0  0  0  0  0  0
    0.5116   -1.2657    0.6210 C   0  0  0  0  0  0  0  0  0  0  0  0
    1.4315    0.1134   -1.1261 C   0  0  0  0  0  0  0  0  0  0  0  0
   -1.5591    4.5705   -0.5987 C   0  0  0  0  0  0  0  0  0  0  0  0
   -3.9120    3.9911   -0.6407 C   0  0  0  0  0  0  0  0  0  0  0  0
    1.7245   -1.9579    0.6991 C   0  0  0  0  0  0  0  0  0  0  0  0
    2.6460   -0.5794   -1.0430 C   0  0  0  0  0  0  0  0  0  0  0  0
   -1.8899    5.9274   -0.6536 C   0  0  0  0  0  0  0  0  0  0  0  0
   -4.2389    5.3505   -0.6956 C   0  0  0  0  0  0  0  0  0  0  0  0
    2.7945   -1.6262   -0.1348 C   0  0  0  0  0  0  0  0  0  0  0  0
   -3.2286    6.3101   -0.7032 C   0  0  0  0  0  0  0  0  0  0  0  0
    3.9210   -2.3764    0.0575 O   0  0  0  0  0  0  0  0  0  0  0  0
   -3.6785    8.1441   -0.7796 Br  0  0  0  0  0  0  0  0  0  0  0  0
    4.9991   -2.2414   -0.8697 C   0  0  0  0  0  0  0  0  0  0  0  0
    5.9319   -1.0954   -0.5392 C   0  0  0  0  0  0  0  0  0  0  0  0
    6.1829   -0.7256    0.7912 C   0  0  0  0  0  0  0  0  0  0  0  0
    6.6014   -0.4163   -1.5691 C   0  0  0  0  0  0  0  0  0  0  0  0
    7.0631    0.3182    1.0860 C   0  0  0  0  0  0  0  0  0  0  0  0
    7.4810    0.6286   -1.2747 C   0  0  0  0  0  0  0  0  0  0  0  0
    7.7062    0.9928    0.0513 C   0  0  0  0  0  0  0  0  0  0  0  0
    8.7911    2.2795    0.4112 Cl  0  0  0  0  0  0  0  0  0  0  0  0
   -3.6966   -3.7435    0.0350 H   0  0  0  0  0  0  0  0  0  0  0  0
   -2.6762   -1.8991    1.5375 H   0  0  0  0  0  0  0  0  0  0  0  0
   -4.0603   -1.0530    1.0104 H   0  0  0  0  0  0  0  0  0  0  0  0
   -3.4396   -1.5353   -1.3105 H   0  0  0  0  0  0  0  0  0  0  0  0
   -1.8995   -2.1250   -0.6705 H   0  0  0  0  0  0  0  0  0  0  0  0
   -4.8412   -2.8944    2.7795 H   0  0  0  0  0  0  0  0  0  0  0  0
   -4.9699   -4.5146    2.0902 H   0  0  0  0  0  0  0  0  0  0  0  0
   -4.1118    1.2061   -0.6034 H   0  0  0  0  0  0  0  0  0  0  0  0
   -0.2827   -1.5429    1.3120 H   0  0  0  0  0  0  0  0  0  0  0  0
    1.3346    0.9352   -1.8331 H   0  0  0  0  0  0  0  0  0  0  0  0
   -0.5079    4.2886   -0.5570 H   0  0  0  0  0  0  0  0  0  0  0  0
   -4.7287    3.2749   -0.6305 H   0  0  0  0  0  0  0  0  0  0  0  0
    1.8275   -2.7613    1.4266 H   0  0  0  0  0  0  0  0  0  0  0  0
    3.4541   -0.2592   -1.6898 H   0  0  0  0  0  0  0  0  0  0  0  0
   -1.0971    6.6700   -0.6561 H   0  0  0  0  0  0  0  0  0  0  0  0
   -5.2851    5.6467   -0.7294 H   0  0  0  0  0  0  0  0  0  0  0  0
    5.5848   -3.1666   -0.8041 H   0  0  0  0  0  0  0  0  0  0  0  0
    4.6278   -2.1906   -1.9009 H   0  0  0  0  0  0  0  0  0  0  0  0
    5.6822   -1.2458    1.6069 H   0  0  0  0  0  0  0  0  0  0  0  0
    6.4375   -0.6935   -2.6085 H   0  0  0  0  0  0  0  0  0  0  0  0
    7.2374    0.5967    2.1217 H   0  0  0  0  0  0  0  0  0  0  0  0
    7.9855    1.1532   -2.0817 H   0  0  0  0  0  0  0  0  0  0  0  0
  1  2  1  0
  2  3  1  0
  1  4  1  0
  5  1  1  0
  4  6  2  0
  4  7  1  0
  5  8  1  0
  8  9  2  0
  8 10  1  0
  3 11  1  0
 11 12  2  0
 13 11  1  0
 12 14  1  0
 15 13  2  0
 13 16  1  0
 14 17  1  0
 14 15  1  0
 16 18  2  0
 19 16  1  0
 17 20  2  0
 21 17  1  0
 18 22  1  0
 23 19  2  0
 20 24  1  0
 25 21  2  0
 22 26  2  0
 26 23  1  0
 24 27  2  0
 27 25  1  0
 26 28  1  0
 27 29  1  0
 28 30  1  0
 30 31  1  0
 31 32  2  0
 33 31  1  0
 32 34  1  0
 35 33  2  0
 34 36  2  0
 36 35  1  0
 36 37  1  0
  1 38  1  6
  2 39  1  0
  2 40  1  0
  3 41  1  0
  3 42  1  0
  5 43  1  0
  5 44  1  0
 12 45  1  0
 18 46  1  0
 19 47  1  0
 20 48  1  0
 21 49  1  0
 22 50  1  0
 23 51  1  0
 24 52  1  0
 25 53  1  0
 30 54  1  0
 30 55  1  0
 32 56  1  0
 33 57  1  0
 34 58  1  0
 35 59  1  0
M  CHG  3   2   1   7  -1  10  -1
M  END
>  <SMILES_raw>  (146) 
O=C(O)C[C@@H](C(O)=O)NCC1=CN(C2=CC=C(Br)C=C2)N=C1C3=CC=C(OCC4=CC=C(Cl)C=C4)C=C3

>  <Protonation_Method>  (146) 
MolScrub

>  <Target_pH>  (146) 
7.4

$$$$
N-((1-(4-bromophenyl)-3-(4-((4-chlorobenzyl)oxy)phenyl)-1H-pyrazol-4-yl)methyl)-L-isoleucin
     RDKit          3D

 66 69  0  0  0  0  0  0  0  0999 V2000
   -3.3353   -2.3463   -1.2951 C   0  0  2  0  0  0  0  0  0  0  0  0
   -3.0441   -0.9990   -0.6171 N   0  0  0  0  0  0  0  0  0  0  0  0
   -1.8237   -0.3236   -1.1251 C   0  0  0  0  0  0  0  0  0  0  0  0
   -3.9818   -2.0226   -2.6896 C   0  0  0  0  0  0  0  0  0  0  0  0
   -4.3358   -3.1505   -0.4308 C   0  0  2  0  0  0  0  0  0  0  0  0
   -4.5449   -0.8777   -2.6472 O   0  0  0  0  0  0  0  0  0  0  0  0
   -3.7532   -2.8218   -3.6227 O   0  0  0  0  0  0  0  0  0  0  0  0
   -3.9092   -3.3525    1.0440 C   0  0  0  0  0  0  0  0  0  0  0  0
   -4.6378   -4.5186   -1.0651 C   0  0  0  0  0  0  0  0  0  0  0  0
   -2.5419   -3.9947    1.2441 C   0  0  0  0  0  0  0  0  0  0  0  0
   -1.7164    1.0611   -0.5977 C   0  0  0  0  0  0  0  0  0  0  0  0
   -2.7077    2.0241   -0.5380 C   0  0  0  0  0  0  0  0  0  0  0  0
   -0.5718    1.7044   -0.0513 C   0  0  0  0  0  0  0  0  0  0  0  0
   -2.1662    3.1407    0.0591 N   0  0  0  0  0  0  0  0  0  0  0  0
   -0.8713    2.9301    0.3917 N   0  0  0  0  0  0  0  0  0  0  0  0
    0.7835    1.1816    0.0808 C   0  0  0  0  0  0  0  0  0  0  0  0
   -2.8057    4.3768    0.3575 C   0  0  0  0  0  0  0  0  0  0  0  0
    1.4680    0.6813   -1.0342 C   0  0  0  0  0  0  0  0  0  0  0  0
    1.4200    1.1866    1.3247 C   0  0  0  0  0  0  0  0  0  0  0  0
   -2.0789    5.3871    1.0100 C   0  0  0  0  0  0  0  0  0  0  0  0
   -4.1478    4.6043    0.0190 C   0  0  0  0  0  0  0  0  0  0  0  0
    2.7693    0.1787   -0.9039 C   0  0  0  0  0  0  0  0  0  0  0  0
    2.7160    0.6804    1.4514 C   0  0  0  0  0  0  0  0  0  0  0  0
   -2.6878    6.6047    1.3260 C   0  0  0  0  0  0  0  0  0  0  0  0
   -4.7532    5.8252    0.3380 C   0  0  0  0  0  0  0  0  0  0  0  0
    3.3986    0.1779    0.3410 C   0  0  0  0  0  0  0  0  0  0  0  0
   -4.0228    6.8167    0.9910 C   0  0  0  0  0  0  0  0  0  0  0  0
    4.6606   -0.2743    0.6067 O   0  0  0  0  0  0  0  0  0  0  0  0
   -4.8496    8.4602    1.4224 Br  0  0  0  0  0  0  0  0  0  0  0  0
    5.4546   -0.6808   -0.5056 C   0  0  0  0  0  0  0  0  0  0  0  0
    6.8261   -1.0444    0.0100 C   0  0  0  0  0  0  0  0  0  0  0  0
    7.8597   -0.0948    0.0161 C   0  0  0  0  0  0  0  0  0  0  0  0
    7.0735   -2.3258    0.5268 C   0  0  0  0  0  0  0  0  0  0  0  0
    9.1242   -0.4286    0.5078 C   0  0  0  0  0  0  0  0  0  0  0  0
    8.3379   -2.6585    1.0197 C   0  0  0  0  0  0  0  0  0  0  0  0
    9.3580   -1.7095    1.0051 C   0  0  0  0  0  0  0  0  0  0  0  0
   10.9155   -2.1214    1.6106 Cl  0  0  0  0  0  0  0  0  0  0  0  0
   -2.3783   -2.8676   -1.4084 H   0  0  0  0  0  0  0  0  0  0  0  0
   -3.1139   -0.9847    0.3975 H   0  0  0  0  0  0  0  0  0  0  0  0
   -3.8386   -0.4434   -1.0109 H   0  0  0  0  0  0  0  0  0  0  0  0
   -1.8591   -0.3090   -2.2216 H   0  0  0  0  0  0  0  0  0  0  0  0
   -0.9794   -0.9443   -0.8047 H   0  0  0  0  0  0  0  0  0  0  0  0
   -5.2897   -2.6019   -0.4042 H   0  0  0  0  0  0  0  0  0  0  0  0
   -3.9320   -2.3959    1.5766 H   0  0  0  0  0  0  0  0  0  0  0  0
   -4.6614   -3.9752    1.5479 H   0  0  0  0  0  0  0  0  0  0  0  0
   -5.1360   -4.4109   -2.0347 H   0  0  0  0  0  0  0  0  0  0  0  0
   -5.3112   -5.1026   -0.4271 H   0  0  0  0  0  0  0  0  0  0  0  0
   -3.7230   -5.1016   -1.2212 H   0  0  0  0  0  0  0  0  0  0  0  0
   -2.4924   -4.9878    0.7879 H   0  0  0  0  0  0  0  0  0  0  0  0
   -1.7403   -3.3790    0.8262 H   0  0  0  0  0  0  0  0  0  0  0  0
   -2.3430   -4.1145    2.3154 H   0  0  0  0  0  0  0  0  0  0  0  0
   -3.7350    1.9979   -0.8731 H   0  0  0  0  0  0  0  0  0  0  0  0
    1.0120    0.7028   -2.0220 H   0  0  0  0  0  0  0  0  0  0  0  0
    0.9171    1.5918    2.2003 H   0  0  0  0  0  0  0  0  0  0  0  0
   -1.0336    5.2412    1.2811 H   0  0  0  0  0  0  0  0  0  0  0  0
   -4.7526    3.8635   -0.4947 H   0  0  0  0  0  0  0  0  0  0  0  0
    3.2615   -0.1928   -1.7970 H   0  0  0  0  0  0  0  0  0  0  0  0
    3.2025    0.6909    2.4243 H   0  0  0  0  0  0  0  0  0  0  0  0
   -2.1118    7.3757    1.8306 H   0  0  0  0  0  0  0  0  0  0  0  0
   -5.7944    5.9932    0.0702 H   0  0  0  0  0  0  0  0  0  0  0  0
    5.5439    0.1308   -1.2401 H   0  0  0  0  0  0  0  0  0  0  0  0
    5.0097   -1.5561   -0.9972 H   0  0  0  0  0  0  0  0  0  0  0  0
    7.6836    0.9126   -0.3574 H   0  0  0  0  0  0  0  0  0  0  0  0
    6.2794   -3.0698    0.5531 H   0  0  0  0  0  0  0  0  0  0  0  0
    9.9182    0.3139    0.5056 H   0  0  0  0  0  0  0  0  0  0  0  0
    8.5191   -3.6539    1.4173 H   0  0  0  0  0  0  0  0  0  0  0  0
  1  2  1  0
  2  3  1  0
  1  4  1  0
  5  1  1  0
  4  6  2  0
  4  7  1  0
  8  5  1  0
  5  9  1  0
 10  8  1  0
  3 11  1  0
 11 12  2  0
 13 11  1  0
 12 14  1  0
 15 13  2  0
 13 16  1  0
 14 17  1  0
 14 15  1  0
 16 18  2  0
 19 16  1  0
 17 20  2  0
 21 17  1  0
 18 22  1  0
 23 19  2  0
 20 24  1  0
 25 21  2  0
 22 26  2  0
 26 23  1  0
 24 27  2  0
 27 25  1  0
 26 28  1  0
 27 29  1  0
 28 30  1  0
 30 31  1  0
 31 32  2  0
 33 31  1  0
 32 34  1  0
 35 33  2  0
 34 36  2  0
 36 35  1  0
 36 37  1  0
  1 38  1  6
  2 39  1  0
  2 40  1  0
  3 41  1  0
  3 42  1  0
  5 43  1  1
  8 44  1  0
  8 45  1  0
  9 46  1  0
  9 47  1  0
  9 48  1  0
 10 49  1  0
 10 50  1  0
 10 51  1  0
 12 52  1  0
 18 53  1  0
 19 54  1  0
 20 55  1  0
 21 56  1  0
 22 57  1  0
 23 58  1  0
 24 59  1  0
 25 60  1  0
 30 61  1  0
 30 62  1  0
 32 63  1  0
 33 64  1  0
 34 65  1  0
 35 66  1  0
M  CHG  2   2   1   7  -1
M  END
>  <SMILES_raw>  (147) 
CC[C@H](C)[C@@H](C(O)=O)NCC1=CN(C2=CC=C(Br)C=C2)N=C1C3=CC=C(OCC4=CC=C(Cl)C=C4)C=C3

>  <Protonation_Method>  (147) 
MolScrub

>  <Target_pH>  (147) 
7.4

$$$$
N-((1-(4-bromophenyl)-3-(4-((4-chlorobenzyl)oxy)phenyl)-1H-pyrazol-4-yl)methyl)-L-methionin
     RDKit          3D

 64 67  0  0  0  0  0  0  0  0999 V2000
   -2.3939   -1.3112   -1.5127 C   0  0  2  0  0  0  0  0  0  0  0  0
   -0.8841   -0.9510   -1.4079 N   0  0  0  0  0  0  0  0  0  0  0  0
   -0.5161    0.4240   -1.8113 C   0  0  0  0  0  0  0  0  0  0  0  0
   -3.0203   -1.0386   -0.1076 C   0  0  0  0  0  0  0  0  0  0  0  0
   -2.4499   -2.7978   -1.8896 C   0  0  0  0  0  0  0  0  0  0  0  0
   -4.1069   -0.4194   -0.0794 O   0  0  0  0  0  0  0  0  0  0  0  0
   -2.1755   -1.3384    0.7999 O   0  0  0  0  0  0  0  0  0  0  0  0
   -3.7716   -3.2694   -2.5004 C   0  0  0  0  0  0  0  0  0  0  0  0
   -5.2244   -3.3640   -1.4181 S   0  0  0  0  0  0  0  0  0  0  0  0
   -4.5919   -4.4310   -0.0987 C   0  0  0  0  0  0  0  0  0  0  0  0
   -0.8756    1.4857   -0.8452 C   0  0  0  0  0  0  0  0  0  0  0  0
   -2.1064    2.0701   -0.6300 C   0  0  0  0  0  0  0  0  0  0  0  0
   -0.0210    2.1425    0.0804 C   0  0  0  0  0  0  0  0  0  0  0  0
   -1.9657    2.9677    0.4070 N   0  0  0  0  0  0  0  0  0  0  0  0
   -0.6589    3.1070    0.7487 N   0  0  0  0  0  0  0  0  0  0  0  0
    1.3830    1.8590    0.3192 C   0  0  0  0  0  0  0  0  0  0  0  0
   -2.9827    3.7209    1.0554 C   0  0  0  0  0  0  0  0  0  0  0  0
    1.7427    0.7298    1.0631 C   0  0  0  0  0  0  0  0  0  0  0  0
    2.3750    2.6699   -0.2335 C   0  0  0  0  0  0  0  0  0  0  0  0
   -2.6237    4.7429    1.9483 C   0  0  0  0  0  0  0  0  0  0  0  0
   -4.3393    3.4477    0.8278 C   0  0  0  0  0  0  0  0  0  0  0  0
    3.0908    0.3964    1.2300 C   0  0  0  0  0  0  0  0  0  0  0  0
    3.7194    2.3285   -0.0679 C   0  0  0  0  0  0  0  0  0  0  0  0
   -3.6107    5.5016    2.5846 C   0  0  0  0  0  0  0  0  0  0  0  0
   -5.3232    4.2061    1.4702 C   0  0  0  0  0  0  0  0  0  0  0  0
    4.0857    1.1864    0.6530 C   0  0  0  0  0  0  0  0  0  0  0  0
   -4.9554    5.2319    2.3385 C   0  0  0  0  0  0  0  0  0  0  0  0
    5.4326    0.9565    0.7015 O   0  0  0  0  0  0  0  0  0  0  0  0
   -6.2907    6.2600    3.1968 Br  0  0  0  0  0  0  0  0  0  0  0  0
    5.9150   -0.1689    1.4422 C   0  0  0  0  0  0  0  0  0  0  0  0
    5.7741   -1.4759    0.6906 C   0  0  0  0  0  0  0  0  0  0  0  0
    6.0256   -1.5445   -0.6884 C   0  0  0  0  0  0  0  0  0  0  0  0
    5.4274   -2.6496    1.3768 C   0  0  0  0  0  0  0  0  0  0  0  0
    5.9013   -2.7551   -1.3729 C   0  0  0  0  0  0  0  0  0  0  0  0
    5.3002   -3.8601    0.6919 C   0  0  0  0  0  0  0  0  0  0  0  0
    5.5344   -3.9065   -0.6805 C   0  0  0  0  0  0  0  0  0  0  0  0
    5.3671   -5.3960   -1.5250 Cl  0  0  0  0  0  0  0  0  0  0  0  0
   -2.8222   -0.6781   -2.2970 H   0  0  0  0  0  0  0  0  0  0  0  0
   -0.2749   -1.6590   -1.8179 H   0  0  0  0  0  0  0  0  0  0  0  0
   -0.7608   -1.0333   -0.3688 H   0  0  0  0  0  0  0  0  0  0  0  0
    0.5678    0.4004   -1.9705 H   0  0  0  0  0  0  0  0  0  0  0  0
   -0.9697    0.6082   -2.7920 H   0  0  0  0  0  0  0  0  0  0  0  0
   -2.1713   -3.4300   -1.0379 H   0  0  0  0  0  0  0  0  0  0  0  0
   -1.6886   -2.9888   -2.6593 H   0  0  0  0  0  0  0  0  0  0  0  0
   -4.0362   -2.6148   -3.3403 H   0  0  0  0  0  0  0  0  0  0  0  0
   -3.6245   -4.2693   -2.9270 H   0  0  0  0  0  0  0  0  0  0  0  0
   -5.4268   -4.7493    0.5331 H   0  0  0  0  0  0  0  0  0  0  0  0
   -3.8810   -3.8901    0.5287 H   0  0  0  0  0  0  0  0  0  0  0  0
   -4.1176   -5.3222   -0.5182 H   0  0  0  0  0  0  0  0  0  0  0  0
   -3.0692    1.8870   -1.0857 H   0  0  0  0  0  0  0  0  0  0  0  0
    0.9760    0.1113    1.5292 H   0  0  0  0  0  0  0  0  0  0  0  0
    2.1097    3.5646   -0.7921 H   0  0  0  0  0  0  0  0  0  0  0  0
   -1.5787    4.9673    2.1505 H   0  0  0  0  0  0  0  0  0  0  0  0
   -4.6652    2.6291    0.1889 H   0  0  0  0  0  0  0  0  0  0  0  0
    3.3215   -0.4877    1.8144 H   0  0  0  0  0  0  0  0  0  0  0  0
    4.4892    2.9596   -0.5056 H   0  0  0  0  0  0  0  0  0  0  0  0
   -3.3176    6.2944    3.2672 H   0  0  0  0  0  0  0  0  0  0  0  0
   -6.3719    3.9795    1.2893 H   0  0  0  0  0  0  0  0  0  0  0  0
    6.9856   -0.0010    1.6088 H   0  0  0  0  0  0  0  0  0  0  0  0
    5.4570   -0.2042    2.4379 H   0  0  0  0  0  0  0  0  0  0  0  0
    6.3159   -0.6491   -1.2355 H   0  0  0  0  0  0  0  0  0  0  0  0
    5.2483   -2.6294    2.4502 H   0  0  0  0  0  0  0  0  0  0  0  0
    6.0955   -2.7919   -2.4412 H   0  0  0  0  0  0  0  0  0  0  0  0
    5.0230   -4.7605    1.2337 H   0  0  0  0  0  0  0  0  0  0  0  0
  1  2  1  0
  2  3  1  0
  1  4  1  0
  5  1  1  0
  4  6  2  0
  4  7  1  0
  8  5  1  0
  9  8  1  0
 10  9  1  0
  3 11  1  0
 11 12  2  0
 13 11  1  0
 12 14  1  0
 15 13  2  0
 13 16  1  0
 14 17  1  0
 14 15  1  0
 16 18  2  0
 19 16  1  0
 17 20  2  0
 21 17  1  0
 18 22  1  0
 23 19  2  0
 20 24  1  0
 25 21  2  0
 22 26  2  0
 26 23  1  0
 24 27  2  0
 27 25  1  0
 26 28  1  0
 27 29  1  0
 28 30  1  0
 30 31  1  0
 31 32  2  0
 33 31  1  0
 32 34  1  0
 35 33  2  0
 34 36  2  0
 36 35  1  0
 36 37  1  0
  1 38  1  6
  2 39  1  0
  2 40  1  0
  3 41  1  0
  3 42  1  0
  5 43  1  0
  5 44  1  0
  8 45  1  0
  8 46  1  0
 10 47  1  0
 10 48  1  0
 10 49  1  0
 12 50  1  0
 18 51  1  0
 19 52  1  0
 20 53  1  0
 21 54  1  0
 22 55  1  0
 23 56  1  0
 24 57  1  0
 25 58  1  0
 30 59  1  0
 30 60  1  0
 32 61  1  0
 33 62  1  0
 34 63  1  0
 35 64  1  0
M  CHG  2   2   1   7  -1
M  END
>  <SMILES_raw>  (148) 
CSCC[C@@H](C(O)=O)NCC1=CN(C2=CC=C(Br)C=C2)N=C1C3=CC=C(OCC4=CC=C(Cl)C=C4)C=C3

>  <Protonation_Method>  (148) 
MolScrub

>  <Target_pH>  (148) 
7.4

$$$$
N-((1-(4-bromophenyl)-3-(4-((4-chlorobenzyl)oxy)phenyl)-1H-pyrazol-4-yl)methyl)-L-phenylalanin
     RDKit          3D

 67 71  0  0  0  0  0  0  0  0999 V2000
   -2.2920   -1.5055    2.4815 C   0  0  2  0  0  0  0  0  0  0  0  0
   -0.8894   -1.2807    1.8883 N   0  0  0  0  0  0  0  0  0  0  0  0
   -0.1343   -0.1091    2.3377 C   0  0  0  0  0  0  0  0  0  0  0  0
   -2.3252   -2.9068    3.1569 C   0  0  0  0  0  0  0  0  0  0  0  0
   -3.3979   -1.2635    1.4503 C   0  0  0  0  0  0  0  0  0  0  0  0
   -1.1390   -3.3760    3.2066 O   0  0  0  0  0  0  0  0  0  0  0  0
   -3.4261   -3.3523    3.5396 O   0  0  0  0  0  0  0  0  0  0  0  0
   -3.1433   -1.8522    0.0812 C   0  0  0  0  0  0  0  0  0  0  0  0
   -2.8992   -1.0136   -1.0165 C   0  0  0  0  0  0  0  0  0  0  0  0
   -3.1380   -3.2403   -0.1095 C   0  0  0  0  0  0  0  0  0  0  0  0
   -2.6346   -1.5556   -2.2749 C   0  0  0  0  0  0  0  0  0  0  0  0
   -2.8695   -3.7786   -1.3686 C   0  0  0  0  0  0  0  0  0  0  0  0
   -2.6142   -2.9374   -2.4495 C   0  0  0  0  0  0  0  0  0  0  0  0
   -0.6027    1.1432    1.6957 C   0  0  0  0  0  0  0  0  0  0  0  0
   -1.5596    2.0248    2.1619 C   0  0  0  0  0  0  0  0  0  0  0  0
   -0.1996    1.6935    0.4480 C   0  0  0  0  0  0  0  0  0  0  0  0
   -1.7176    3.0080    1.2099 N   0  0  0  0  0  0  0  0  0  0  0  0
   -0.9011    2.7919    0.1530 N   0  0  0  0  0  0  0  0  0  0  0  0
    0.7968    1.1782   -0.4825 C   0  0  0  0  0  0  0  0  0  0  0  0
   -2.6031    4.1220    1.2333 C   0  0  0  0  0  0  0  0  0  0  0  0
    2.1304    1.0236   -0.0886 C   0  0  0  0  0  0  0  0  0  0  0  0
    0.4240    0.8233   -1.7813 C   0  0  0  0  0  0  0  0  0  0  0  0
   -2.6153    5.0134    0.1472 C   0  0  0  0  0  0  0  0  0  0  0  0
   -3.4649    4.3467    2.3168 C   0  0  0  0  0  0  0  0  0  0  0  0
    3.0753    0.4918   -0.9745 C   0  0  0  0  0  0  0  0  0  0  0  0
    1.3673    0.2846   -2.6592 C   0  0  0  0  0  0  0  0  0  0  0  0
   -3.4787    6.1124    0.1439 C   0  0  0  0  0  0  0  0  0  0  0  0
   -4.3280    5.4484    2.3083 C   0  0  0  0  0  0  0  0  0  0  0  0
    2.6964    0.1170   -2.2631 C   0  0  0  0  0  0  0  0  0  0  0  0
   -4.3312    6.3242    1.2240 C   0  0  0  0  0  0  0  0  0  0  0  0
    3.5066   -0.4386   -3.2132 O   0  0  0  0  0  0  0  0  0  0  0  0
   -5.5005    7.8091    1.2214 Br  0  0  0  0  0  0  0  0  0  0  0  0
    4.9222   -0.4001   -3.0117 C   0  0  0  0  0  0  0  0  0  0  0  0
    5.4397   -1.5391   -2.1593 C   0  0  0  0  0  0  0  0  0  0  0  0
    4.8284   -2.8022   -2.1812 C   0  0  0  0  0  0  0  0  0  0  0  0
    6.5826   -1.3531   -1.3657 C   0  0  0  0  0  0  0  0  0  0  0  0
    5.3290   -3.8477   -1.4018 C   0  0  0  0  0  0  0  0  0  0  0  0
    7.0837   -2.3992   -0.5871 C   0  0  0  0  0  0  0  0  0  0  0  0
    6.4528   -3.6409   -0.6058 C   0  0  0  0  0  0  0  0  0  0  0  0
    7.0696   -4.9264    0.3562 Cl  0  0  0  0  0  0  0  0  0  0  0  0
   -2.4051   -0.7907    3.3069 H   0  0  0  0  0  0  0  0  0  0  0  0
   -0.4237   -2.1409    2.2809 H   0  0  0  0  0  0  0  0  0  0  0  0
   -0.8694   -1.4472    0.8771 H   0  0  0  0  0  0  0  0  0  0  0  0
    0.9145   -0.3106    2.1038 H   0  0  0  0  0  0  0  0  0  0  0  0
   -0.2154   -0.0554    3.4290 H   0  0  0  0  0  0  0  0  0  0  0  0
   -3.5423   -0.1804    1.3457 H   0  0  0  0  0  0  0  0  0  0  0  0
   -4.3602   -1.6454    1.8144 H   0  0  0  0  0  0  0  0  0  0  0  0
   -2.9220    0.0692   -0.9050 H   0  0  0  0  0  0  0  0  0  0  0  0
   -3.3535   -3.9190    0.7171 H   0  0  0  0  0  0  0  0  0  0  0  0
   -2.4539   -0.9009   -3.1235 H   0  0  0  0  0  0  0  0  0  0  0  0
   -2.8699   -4.8576   -1.5053 H   0  0  0  0  0  0  0  0  0  0  0  0
   -2.4140   -3.3604   -3.4304 H   0  0  0  0  0  0  0  0  0  0  0  0
   -2.1395    2.0148    3.0730 H   0  0  0  0  0  0  0  0  0  0  0  0
    2.4560    1.3277    0.9032 H   0  0  0  0  0  0  0  0  0  0  0  0
   -0.5998    0.9640   -2.1191 H   0  0  0  0  0  0  0  0  0  0  0  0
   -1.9565    4.8669   -0.7078 H   0  0  0  0  0  0  0  0  0  0  0  0
   -3.4966    3.6923    3.1823 H   0  0  0  0  0  0  0  0  0  0  0  0
    4.0943    0.3762   -0.6208 H   0  0  0  0  0  0  0  0  0  0  0  0
    1.0643   -0.0002   -3.6642 H   0  0  0  0  0  0  0  0  0  0  0  0
   -3.4760    6.7920   -0.7047 H   0  0  0  0  0  0  0  0  0  0  0  0
   -4.9940    5.6140    3.1520 H   0  0  0  0  0  0  0  0  0  0  0  0
    5.3819   -0.4980   -4.0024 H   0  0  0  0  0  0  0  0  0  0  0  0
    5.2331    0.5790   -2.6251 H   0  0  0  0  0  0  0  0  0  0  0  0
    3.9526   -2.9776   -2.8042 H   0  0  0  0  0  0  0  0  0  0  0  0
    7.0907   -0.3907   -1.3469 H   0  0  0  0  0  0  0  0  0  0  0  0
    4.8388   -4.8171   -1.4220 H   0  0  0  0  0  0  0  0  0  0  0  0
    7.9657   -2.2413    0.0281 H   0  0  0  0  0  0  0  0  0  0  0  0
  1  2  1  0
  2  3  1  0
  1  4  1  0
  1  5  1  0
  4  6  2  0
  4  7  1  0
  5  8  1  0
  8  9  2  0
 10  8  1  0
  9 11  1  0
 12 10  2  0
 11 13  2  0
 13 12  1  0
  3 14  1  0
 14 15  2  0
 16 14  1  0
 15 17  1  0
 18 16  2  0
 16 19  1  0
 17 20  1  0
 17 18  1  0
 19 21  2  0
 22 19  1  0
 20 23  2  0
 24 20  1  0
 21 25  1  0
 26 22  2  0
 23 27  1  0
 28 24  2  0
 25 29  2  0
 29 26  1  0
 27 30  2  0
 30 28  1  0
 29 31  1  0
 30 32  1  0
 31 33  1  0
 33 34  1  0
 34 35  2  0
 36 34  1  0
 35 37  1  0
 38 36  2  0
 37 39  2  0
 39 38  1  0
 39 40  1  0
  1 41  1  1
  2 42  1  0
  2 43  1  0
  3 44  1  0
  3 45  1  0
  5 46  1  0
  5 47  1  0
  9 48  1  0
 10 49  1  0
 11 50  1  0
 12 51  1  0
 13 52  1  0
 15 53  1  0
 21 54  1  0
 22 55  1  0
 23 56  1  0
 24 57  1  0
 25 58  1  0
 26 59  1  0
 27 60  1  0
 28 61  1  0
 33 62  1  0
 33 63  1  0
 35 64  1  0
 36 65  1  0
 37 66  1  0
 38 67  1  0
M  CHG  2   2   1   7  -1
M  END
>  <SMILES_raw>  (149) 
O=C(O)[C@H](CC1=CC=CC=C1)NCC2=CN(C3=CC=C(Br)C=C3)N=C2C4=CC=C(OCC5=CC=C(Cl)C=C5)C=C4

>  <Protonation_Method>  (149) 
MolScrub

>  <Target_pH>  (149) 
7.4

$$$$
N-((1-(4-bromophenyl)-3-(4-((4-chlorobenzyl)oxy)phenyl)-1H-pyrazol-4-yl)methyl)-L-tryptophan
     RDKit          3D

 71 76  0  0  0  0  0  0  0  0999 V2000
   -2.7162   -1.4782   -1.9694 C   0  0  2  0  0  0  0  0  0  0  0  0
   -2.0008   -0.2181   -1.4527 N   0  0  0  0  0  0  0  0  0  0  0  0
   -1.5751   -0.2315   -0.0495 C   0  0  0  0  0  0  0  0  0  0  0  0
   -1.8595   -2.0847   -3.1170 C   0  0  0  0  0  0  0  0  0  0  0  0
   -4.0919   -1.1034   -2.5209 C   0  0  0  0  0  0  0  0  0  0  0  0
   -2.3075   -3.0779   -3.7258 O   0  0  0  0  0  0  0  0  0  0  0  0
   -0.7886   -1.3975   -3.2437 O   0  0  0  0  0  0  0  0  0  0  0  0
   -5.0202   -0.6192   -1.4418 C   0  0  0  0  0  0  0  0  0  0  0  0
   -5.3365    0.6885   -1.1213 C   0  0  0  0  0  0  0  0  0  0  0  0
   -5.7827   -1.4564   -0.5612 C   0  0  0  0  0  0  0  0  0  0  0  0
   -6.2349    0.6705   -0.0824 N   0  0  0  0  0  0  0  0  0  0  0  0
   -6.5220   -0.6249    0.2821 C   0  0  0  0  0  0  0  0  0  0  0  0
   -5.9260   -2.8535   -0.4220 C   0  0  0  0  0  0  0  0  0  0  0  0
   -7.3751   -1.1194    1.2791 C   0  0  0  0  0  0  0  0  0  0  0  0
   -6.7936   -3.3648    0.5541 C   0  0  0  0  0  0  0  0  0  0  0  0
   -7.4923   -2.5075    1.4002 C   0  0  0  0  0  0  0  0  0  0  0  0
   -0.9356    1.0637    0.2948 C   0  0  0  0  0  0  0  0  0  0  0  0
   -1.5641    2.2952    0.3742 C   0  0  0  0  0  0  0  0  0  0  0  0
    0.4245    1.3400    0.6149 C   0  0  0  0  0  0  0  0  0  0  0  0
   -0.6043    3.2282    0.6963 N   0  0  0  0  0  0  0  0  0  0  0  0
    0.5909    2.6382    0.9020 N   0  0  0  0  0  0  0  0  0  0  0  0
    1.5762    0.4403    0.6627 C   0  0  0  0  0  0  0  0  0  0  0  0
   -0.7540    4.6387    0.8152 C   0  0  0  0  0  0  0  0  0  0  0  0
    2.4534    0.4957    1.7563 C   0  0  0  0  0  0  0  0  0  0  0  0
    1.8588   -0.4426   -0.3847 C   0  0  0  0  0  0  0  0  0  0  0  0
    0.3609    5.4216    1.1662 C   0  0  0  0  0  0  0  0  0  0  0  0
   -1.9810    5.2658    0.5537 C   0  0  0  0  0  0  0  0  0  0  0  0
    3.5935   -0.3148    1.8050 C   0  0  0  0  0  0  0  0  0  0  0  0
    2.9998   -1.2515   -0.3324 C   0  0  0  0  0  0  0  0  0  0  0  0
    0.2491    6.8129    1.2522 C   0  0  0  0  0  0  0  0  0  0  0  0
   -2.0898    6.6584    0.6533 C   0  0  0  0  0  0  0  0  0  0  0  0
    3.8787   -1.1819    0.7516 C   0  0  0  0  0  0  0  0  0  0  0  0
   -0.9744    7.4241    0.9956 C   0  0  0  0  0  0  0  0  0  0  0  0
    4.9716   -1.9978    0.6569 O   0  0  0  0  0  0  0  0  0  0  0  0
   -1.1282    9.3094    1.0927 Br  0  0  0  0  0  0  0  0  0  0  0  0
    6.0290   -1.7623    1.5826 C   0  0  0  0  0  0  0  0  0  0  0  0
    7.2328   -2.5620    1.1454 C   0  0  0  0  0  0  0  0  0  0  0  0
    8.0541   -2.0898    0.1098 C   0  0  0  0  0  0  0  0  0  0  0  0
    7.5365   -3.7912    1.7475 C   0  0  0  0  0  0  0  0  0  0  0  0
    9.1658   -2.8263   -0.3066 C   0  0  0  0  0  0  0  0  0  0  0  0
    8.6522   -4.5250    1.3345 C   0  0  0  0  0  0  0  0  0  0  0  0
    9.4615   -4.0393    0.3104 C   0  0  0  0  0  0  0  0  0  0  0  0
   10.8285   -4.9490   -0.2039 Cl  0  0  0  0  0  0  0  0  0  0  0  0
   -2.7767   -2.1897   -1.1383 H   0  0  0  0  0  0  0  0  0  0  0  0
   -1.1425   -0.2561   -2.0642 H   0  0  0  0  0  0  0  0  0  0  0  0
   -2.4872    0.6353   -1.7399 H   0  0  0  0  0  0  0  0  0  0  0  0
   -2.4707   -0.3829    0.5631 H   0  0  0  0  0  0  0  0  0  0  0  0
   -0.9072   -1.0847    0.0921 H   0  0  0  0  0  0  0  0  0  0  0  0
   -4.5551   -1.9722   -3.0070 H   0  0  0  0  0  0  0  0  0  0  0  0
   -3.9974   -0.3357   -3.3010 H   0  0  0  0  0  0  0  0  0  0  0  0
   -5.0286    1.6329   -1.5533 H   0  0  0  0  0  0  0  0  0  0  0  0
   -6.6266    1.4864    0.3654 H   0  0  0  0  0  0  0  0  0  0  0  0
   -5.3961   -3.5363   -1.0828 H   0  0  0  0  0  0  0  0  0  0  0  0
   -7.9278   -0.4560    1.9332 H   0  0  0  0  0  0  0  0  0  0  0  0
   -6.9218   -4.4406    0.6459 H   0  0  0  0  0  0  0  0  0  0  0  0
   -8.1605   -2.9233    2.1546 H   0  0  0  0  0  0  0  0  0  0  0  0
   -2.5975    2.5679    0.2193 H   0  0  0  0  0  0  0  0  0  0  0  0
    2.2607    1.1880    2.5765 H   0  0  0  0  0  0  0  0  0  0  0  0
    1.2340   -0.4981   -1.2732 H   0  0  0  0  0  0  0  0  0  0  0  0
    1.3336    4.9664    1.3576 H   0  0  0  0  0  0  0  0  0  0  0  0
   -2.8651    4.7144    0.2510 H   0  0  0  0  0  0  0  0  0  0  0  0
    4.2394   -0.2348    2.6737 H   0  0  0  0  0  0  0  0  0  0  0  0
    3.2192   -1.9207   -1.1625 H   0  0  0  0  0  0  0  0  0  0  0  0
    1.1245    7.4112    1.4996 H   0  0  0  0  0  0  0  0  0  0  0  0
   -3.0406    7.1430    0.4399 H   0  0  0  0  0  0  0  0  0  0  0  0
    6.3088   -0.7007    1.6096 H   0  0  0  0  0  0  0  0  0  0  0  0
    5.7221   -2.0724    2.5887 H   0  0  0  0  0  0  0  0  0  0  0  0
    7.8233   -1.1483   -0.3849 H   0  0  0  0  0  0  0  0  0  0  0  0
    6.9034   -4.1865    2.5381 H   0  0  0  0  0  0  0  0  0  0  0  0
    9.7883   -2.4496   -1.1134 H   0  0  0  0  0  0  0  0  0  0  0  0
    8.8806   -5.4776    1.8037 H   0  0  0  0  0  0  0  0  0  0  0  0
  1  2  1  0
  2  3  1  0
  1  4  1  0
  1  5  1  0
  4  6  2  0
  4  7  1  0
  5  8  1  0
  8  9  2  0
 10  8  1  0
  9 11  1  0
 12 10  2  0
 10 13  1  0
 11 12  1  0
 14 12  1  0
 13 15  2  0
 16 14  2  0
 15 16  1  0
  3 17  1  0
 17 18  2  0
 19 17  1  0
 18 20  1  0
 21 19  2  0
 19 22  1  0
 20 23  1  0
 20 21  1  0
 22 24  2  0
 25 22  1  0
 23 26  2  0
 27 23  1  0
 24 28  1  0
 29 25  2  0
 26 30  1  0
 31 27  2  0
 28 32  2  0
 32 29  1  0
 30 33  2  0
 33 31  1  0
 32 34  1  0
 33 35  1  0
 34 36  1  0
 36 37  1  0
 37 38  2  0
 39 37  1  0
 38 40  1  0
 41 39  2  0
 40 42  2  0
 42 41  1  0
 42 43  1  0
  1 44  1  1
  2 45  1  0
  2 46  1  0
  3 47  1  0
  3 48  1  0
  5 49  1  0
  5 50  1  0
  9 51  1  0
 11 52  1  0
 13 53  1  0
 14 54  1  0
 15 55  1  0
 16 56  1  0
 18 57  1  0
 24 58  1  0
 25 59  1  0
 26 60  1  0
 27 61  1  0
 28 62  1  0
 29 63  1  0
 30 64  1  0
 31 65  1  0
 36 66  1  0
 36 67  1  0
 38 68  1  0
 39 69  1  0
 40 70  1  0
 41 71  1  0
M  CHG  2   2   1   7  -1
M  END
>  <SMILES_raw>  (150) 
O=C(O)[C@H](CC1=CNC2=C1C=CC=C2)NCC3=CN(C4=CC=C(Br)C=C4)N=C3C5=CC=C(OCC6=CC=C(Cl)C=C6)C=C5

>  <Protonation_Method>  (150) 
MolScrub

>  <Target_pH>  (150) 
7.4

$$$$
N-((1-(4-bromophenyl)-3-(4-((4-chlorobenzyl)oxy)phenyl)-1H-pyrazol-4-yl)methyl)-L-tyrosin
     RDKit          3D

 68 72  0  0  0  0  0  0  0  0999 V2000
   -2.7668    1.3365    0.8338 C   0  0  2  0  0  0  0  0  0  0  0  0
   -1.8139    0.2118    0.3668 N   0  0  0  0  0  0  0  0  0  0  0  0
   -1.9665   -1.0771    1.0944 C   0  0  0  0  0  0  0  0  0  0  0  0
   -2.4965    1.6567    2.3374 C   0  0  0  0  0  0  0  0  0  0  0  0
   -4.2068    0.9956    0.4393 C   0  0  0  0  0  0  0  0  0  0  0  0
   -3.4816    1.8736    3.0764 O   0  0  0  0  0  0  0  0  0  0  0  0
   -1.2599    1.5076    2.6021 O   0  0  0  0  0  0  0  0  0  0  0  0
   -4.9638    2.2006   -0.0705 C   0  0  0  0  0  0  0  0  0  0  0  0
   -5.6135    3.0582    0.8289 C   0  0  0  0  0  0  0  0  0  0  0  0
   -5.0053    2.4948   -1.4415 C   0  0  0  0  0  0  0  0  0  0  0  0
   -6.3047    4.1812    0.3694 C   0  0  0  0  0  0  0  0  0  0  0  0
   -5.6954    3.6182   -1.9010 C   0  0  0  0  0  0  0  0  0  0  0  0
   -6.3413    4.4498   -0.9946 C   0  0  0  0  0  0  0  0  0  0  0  0
   -7.0031    5.5345   -1.4882 O   0  0  0  0  0  0  0  0  0  0  0  0
   -1.2471   -2.1931    0.4252 C   0  0  0  0  0  0  0  0  0  0  0  0
   -1.7898   -3.4009    0.0246 C   0  0  0  0  0  0  0  0  0  0  0  0
    0.1233   -2.2818    0.0445 C   0  0  0  0  0  0  0  0  0  0  0  0
   -0.7794   -4.1427   -0.5454 N   0  0  0  0  0  0  0  0  0  0  0  0
    0.3696   -3.4329   -0.5917 N   0  0  0  0  0  0  0  0  0  0  0  0
    1.1867   -1.2905    0.1982 C   0  0  0  0  0  0  0  0  0  0  0  0
   -0.8410   -5.4685   -1.0608 C   0  0  0  0  0  0  0  0  0  0  0  0
    2.0151   -0.9911   -0.8925 C   0  0  0  0  0  0  0  0  0  0  0  0
    1.3977   -0.6235    1.4076 C   0  0  0  0  0  0  0  0  0  0  0  0
    0.3162   -6.0447   -1.6110 C   0  0  0  0  0  0  0  0  0  0  0  0
   -2.0287   -6.2126   -1.0222 C   0  0  0  0  0  0  0  0  0  0  0  0
    3.0284   -0.0323   -0.7838 C   0  0  0  0  0  0  0  0  0  0  0  0
    2.4082    0.3380    1.5116 C   0  0  0  0  0  0  0  0  0  0  0  0
    0.2894   -7.3505   -2.1101 C   0  0  0  0  0  0  0  0  0  0  0  0
   -2.0535   -7.5172   -1.5300 C   0  0  0  0  0  0  0  0  0  0  0  0
    3.2324    0.6329    0.4235 C   0  0  0  0  0  0  0  0  0  0  0  0
   -0.8955   -8.0804   -2.0667 C   0  0  0  0  0  0  0  0  0  0  0  0
    4.1888    1.5768    0.6700 O   0  0  0  0  0  0  0  0  0  0  0  0
   -0.9348   -9.8475   -2.7353 Br  0  0  0  0  0  0  0  0  0  0  0  0
    5.1726    1.7819   -0.3408 C   0  0  0  0  0  0  0  0  0  0  0  0
    6.2355    2.6967    0.2177 C   0  0  0  0  0  0  0  0  0  0  0  0
    6.1080    4.0894    0.1088 C   0  0  0  0  0  0  0  0  0  0  0  0
    7.3442    2.1625    0.8922 C   0  0  0  0  0  0  0  0  0  0  0  0
    7.0860    4.9319    0.6426 C   0  0  0  0  0  0  0  0  0  0  0  0
    8.3210    3.0058    1.4258 C   0  0  0  0  0  0  0  0  0  0  0  0
    8.1889    4.3862    1.2963 C   0  0  0  0  0  0  0  0  0  0  0  0
    9.3926    5.4254    1.9525 Cl  0  0  0  0  0  0  0  0  0  0  0  0
   -2.4150    2.2088    0.2678 H   0  0  0  0  0  0  0  0  0  0  0  0
   -1.7766    0.1208   -0.6487 H   0  0  0  0  0  0  0  0  0  0  0  0
   -0.9076    0.5898    0.7033 H   0  0  0  0  0  0  0  0  0  0  0  0
   -1.6087   -0.9515    2.1198 H   0  0  0  0  0  0  0  0  0  0  0  0
   -3.0366   -1.3057    1.1346 H   0  0  0  0  0  0  0  0  0  0  0  0
   -4.7575    0.5542    1.2780 H   0  0  0  0  0  0  0  0  0  0  0  0
   -4.2247    0.2354   -0.3516 H   0  0  0  0  0  0  0  0  0  0  0  0
   -5.5826    2.8570    1.9014 H   0  0  0  0  0  0  0  0  0  0  0  0
   -4.5062    1.8554   -2.1653 H   0  0  0  0  0  0  0  0  0  0  0  0
   -6.8036    4.8240    1.0900 H   0  0  0  0  0  0  0  0  0  0  0  0
   -5.7309    3.8462   -2.9633 H   0  0  0  0  0  0  0  0  0  0  0  0
   -7.3724    6.0336   -0.7406 H   0  0  0  0  0  0  0  0  0  0  0  0
   -2.7967   -3.7829    0.1155 H   0  0  0  0  0  0  0  0  0  0  0  0
    1.8793   -1.5134   -1.8386 H   0  0  0  0  0  0  0  0  0  0  0  0
    0.8014   -0.8379    2.2915 H   0  0  0  0  0  0  0  0  0  0  0  0
    1.2565   -5.4934   -1.6436 H   0  0  0  0  0  0  0  0  0  0  0  0
   -2.9489   -5.8197   -0.6007 H   0  0  0  0  0  0  0  0  0  0  0  0
    3.6379    0.1628   -1.6589 H   0  0  0  0  0  0  0  0  0  0  0  0
    2.5578    0.8549    2.4590 H   0  0  0  0  0  0  0  0  0  0  0  0
    1.1966   -7.7860   -2.5228 H   0  0  0  0  0  0  0  0  0  0  0  0
   -2.9772   -8.0899   -1.4924 H   0  0  0  0  0  0  0  0  0  0  0  0
    4.7175    2.2429   -1.2271 H   0  0  0  0  0  0  0  0  0  0  0  0
    5.6400    0.8338   -0.6369 H   0  0  0  0  0  0  0  0  0  0  0  0
    5.2414    4.5251   -0.3844 H   0  0  0  0  0  0  0  0  0  0  0  0
    7.4472    1.0859    1.0138 H   0  0  0  0  0  0  0  0  0  0  0  0
    6.9782    6.0094    0.5524 H   0  0  0  0  0  0  0  0  0  0  0  0
    9.1758    2.5814    1.9442 H   0  0  0  0  0  0  0  0  0  0  0  0
  1  2  1  0
  2  3  1  0
  1  4  1  0
  5  1  1  0
  4  6  2  0
  4  7  1  0
  8  5  1  0
  9  8  2  0
  8 10  1  0
 11  9  1  0
 10 12  2  0
 13 11  2  0
 12 13  1  0
 14 13  1  0
  3 15  1  0
 15 16  2  0
 17 15  1  0
 16 18  1  0
 19 17  2  0
 17 20  1  0
 18 21  1  0
 18 19  1  0
 20 22  2  0
 23 20  1  0
 21 24  2  0
 25 21  1  0
 22 26  1  0
 27 23  2  0
 24 28  1  0
 29 25  2  0
 26 30  2  0
 30 27  1  0
 28 31  2  0
 31 29  1  0
 30 32  1  0
 31 33  1  0
 32 34  1  0
 34 35  1  0
 35 36  2  0
 37 35  1  0
 36 38  1  0
 39 37  2  0
 38 40  2  0
 40 39  1  0
 40 41  1  0
  1 42  1  6
  2 43  1  0
  2 44  1  0
  3 45  1  0
  3 46  1  0
  5 47  1  0
  5 48  1  0
  9 49  1  0
 10 50  1  0
 11 51  1  0
 12 52  1  0
 14 53  1  0
 16 54  1  0
 22 55  1  0
 23 56  1  0
 24 57  1  0
 25 58  1  0
 26 59  1  0
 27 60  1  0
 28 61  1  0
 29 62  1  0
 34 63  1  0
 34 64  1  0
 36 65  1  0
 37 66  1  0
 38 67  1  0
 39 68  1  0
M  CHG  2   2   1   7  -1
M  END
>  <SMILES_raw>  (151) 
OC1=CC=C(C=C1)C[C@@H](C(O)=O)NCC2=CN(C3=CC=C(Br)C=C3)N=C2C4=CC=C(OCC5=CC=C(Cl)C=C5)C=C4

>  <Protonation_Method>  (151) 
MolScrub

>  <Target_pH>  (151) 
7.4

$$$$
N-((1-(4-bromophenyl)-3-(4-((4-chlorobenzyl)oxy)phenyl)-1H-pyrazol-4-yl)methyl)-L-valin
     RDKit          3D

 63 66  0  0  0  0  0  0  0  0999 V2000
   -3.1515   -1.6718   -0.9636 C   0  0  2  0  0  0  0  0  0  0  0  0
   -3.2590   -1.5807    0.5670 N   0  0  0  0  0  0  0  0  0  0  0  0
   -2.2437   -0.7969    1.2898 C   0  0  0  0  0  0  0  0  0  0  0  0
   -4.5020   -1.1682   -1.5767 C   0  0  0  0  0  0  0  0  0  0  0  0
   -2.7516   -3.0861   -1.4172 C   0  0  0  0  0  0  0  0  0  0  0  0
   -5.2511   -0.7274   -0.6401 O   0  0  0  0  0  0  0  0  0  0  0  0
   -4.6591   -1.2676   -2.8090 O   0  0  0  0  0  0  0  0  0  0  0  0
   -3.7781   -4.1642   -1.0542 C   0  0  0  0  0  0  0  0  0  0  0  0
   -1.3689   -3.4852   -0.8942 C   0  0  0  0  0  0  0  0  0  0  0  0
   -2.1726    0.6375    0.9182 C   0  0  0  0  0  0  0  0  0  0  0  0
   -3.2141    1.5207    0.7088 C   0  0  0  0  0  0  0  0  0  0  0  0
   -1.0077    1.4133    0.6696 C   0  0  0  0  0  0  0  0  0  0  0  0
   -2.6702    2.7251    0.3231 N   0  0  0  0  0  0  0  0  0  0  0  0
   -1.3161    2.6667    0.3260 N   0  0  0  0  0  0  0  0  0  0  0  0
    0.3796    0.9736    0.7161 C   0  0  0  0  0  0  0  0  0  0  0  0
   -3.3509    3.9205   -0.0378 C   0  0  0  0  0  0  0  0  0  0  0  0
    0.9292    0.4688    1.8976 C   0  0  0  0  0  0  0  0  0  0  0  0
    1.1645    1.0241   -0.4405 C   0  0  0  0  0  0  0  0  0  0  0  0
   -2.6095    5.0815   -0.3101 C   0  0  0  0  0  0  0  0  0  0  0  0
   -4.7487    3.9595   -0.1325 C   0  0  0  0  0  0  0  0  0  0  0  0
    2.2409   -0.0104    1.9061 C   0  0  0  0  0  0  0  0  0  0  0  0
    2.4806    0.5481   -0.4268 C   0  0  0  0  0  0  0  0  0  0  0  0
   -3.2587    6.2686   -0.6592 C   0  0  0  0  0  0  0  0  0  0  0  0
   -5.3943    5.1503   -0.4853 C   0  0  0  0  0  0  0  0  0  0  0  0
    3.0203    0.0194    0.7456 C   0  0  0  0  0  0  0  0  0  0  0  0
   -4.6486    6.2974   -0.7440 C   0  0  0  0  0  0  0  0  0  0  0  0
    4.2794   -0.4912    0.8953 O   0  0  0  0  0  0  0  0  0  0  0  0
   -5.5291    7.9032   -1.2145 Br  0  0  0  0  0  0  0  0  0  0  0  0
    5.1170   -0.5098   -0.2565 C   0  0  0  0  0  0  0  0  0  0  0  0
    6.4185   -1.1697    0.1308 C   0  0  0  0  0  0  0  0  0  0  0  0
    7.4782   -0.4102    0.6473 C   0  0  0  0  0  0  0  0  0  0  0  0
    6.5683   -2.5600    0.0183 C   0  0  0  0  0  0  0  0  0  0  0  0
    8.6735   -1.0280    1.0245 C   0  0  0  0  0  0  0  0  0  0  0  0
    7.7635   -3.1774    0.3939 C   0  0  0  0  0  0  0  0  0  0  0  0
    8.8118   -2.4085    0.8943 C   0  0  0  0  0  0  0  0  0  0  0  0
   10.2834   -3.1700    1.3595 Cl  0  0  0  0  0  0  0  0  0  0  0  0
   -2.3824   -0.9542   -1.2721 H   0  0  0  0  0  0  0  0  0  0  0  0
   -4.1799   -1.0735    0.6245 H   0  0  0  0  0  0  0  0  0  0  0  0
   -3.4724   -2.4842    0.9855 H   0  0  0  0  0  0  0  0  0  0  0  0
   -2.5017   -0.8799    2.3518 H   0  0  0  0  0  0  0  0  0  0  0  0
   -1.2903   -1.3112    1.1396 H   0  0  0  0  0  0  0  0  0  0  0  0
   -2.6849   -3.0704   -2.5128 H   0  0  0  0  0  0  0  0  0  0  0  0
   -3.8523   -4.3174    0.0268 H   0  0  0  0  0  0  0  0  0  0  0  0
   -3.4940   -5.1231   -1.5007 H   0  0  0  0  0  0  0  0  0  0  0  0
   -4.7735   -3.9116   -1.4322 H   0  0  0  0  0  0  0  0  0  0  0  0
   -0.6212   -2.7260   -1.1458 H   0  0  0  0  0  0  0  0  0  0  0  0
   -1.0463   -4.4305   -1.3451 H   0  0  0  0  0  0  0  0  0  0  0  0
   -1.3683   -3.6214    0.1914 H   0  0  0  0  0  0  0  0  0  0  0  0
   -4.2838    1.3782    0.7708 H   0  0  0  0  0  0  0  0  0  0  0  0
    0.3555    0.4582    2.8202 H   0  0  0  0  0  0  0  0  0  0  0  0
    0.7520    1.4353   -1.3607 H   0  0  0  0  0  0  0  0  0  0  0  0
   -1.5227    5.0791   -0.2498 H   0  0  0  0  0  0  0  0  0  0  0  0
   -5.3674    3.0834    0.0398 H   0  0  0  0  0  0  0  0  0  0  0  0
    2.6666   -0.4048    2.8265 H   0  0  0  0  0  0  0  0  0  0  0  0
    3.0517    0.6112   -1.3475 H   0  0  0  0  0  0  0  0  0  0  0  0
   -2.6711    7.1585   -0.8661 H   0  0  0  0  0  0  0  0  0  0  0  0
   -6.4784    5.1673   -0.5640 H   0  0  0  0  0  0  0  0  0  0  0  0
    5.3105    0.5097   -0.6096 H   0  0  0  0  0  0  0  0  0  0  0  0
    4.6506   -1.0826   -1.0669 H   0  0  0  0  0  0  0  0  0  0  0  0
    7.3746    0.6667    0.7648 H   0  0  0  0  0  0  0  0  0  0  0  0
    5.7492   -3.1685   -0.3581 H   0  0  0  0  0  0  0  0  0  0  0  0
    9.4879   -0.4285    1.4223 H   0  0  0  0  0  0  0  0  0  0  0  0
    7.8688   -4.2547    0.2975 H   0  0  0  0  0  0  0  0  0  0  0  0
  1  2  1  0
  2  3  1  0
  1  4  1  0
  5  1  1  0
  4  6  2  0
  4  7  1  0
  8  5  1  0
  5  9  1  0
  3 10  1  0
 10 11  2  0
 12 10  1  0
 11 13  1  0
 14 12  2  0
 12 15  1  0
 13 16  1  0
 13 14  1  0
 15 17  2  0
 18 15  1  0
 16 19  2  0
 20 16  1  0
 17 21  1  0
 22 18  2  0
 19 23  1  0
 24 20  2  0
 21 25  2  0
 25 22  1  0
 23 26  2  0
 26 24  1  0
 25 27  1  0
 26 28  1  0
 27 29  1  0
 29 30  1  0
 30 31  2  0
 32 30  1  0
 31 33  1  0
 34 32  2  0
 33 35  2  0
 35 34  1  0
 35 36  1  0
  1 37  1  6
  2 38  1  0
  2 39  1  0
  3 40  1  0
  3 41  1  0
  5 42  1  0
  8 43  1  0
  8 44  1  0
  8 45  1  0
  9 46  1  0
  9 47  1  0
  9 48  1  0
 11 49  1  0
 17 50  1  0
 18 51  1  0
 19 52  1  0
 20 53  1  0
 21 54  1  0
 22 55  1  0
 23 56  1  0
 24 57  1  0
 29 58  1  0
 29 59  1  0
 31 60  1  0
 32 61  1  0
 33 62  1  0
 34 63  1  0
M  CHG  2   2   1   7  -1
M  END
>  <SMILES_raw>  (152) 
CC(C)[C@@H](C(O)=O)NCC1=CN(C2=CC=C(Br)C=C2)N=C1C3=CC=C(OCC4=CC=C(Cl)C=C4)C=C3

>  <Protonation_Method>  (152) 
MolScrub

>  <Target_pH>  (152) 
7.4

$$$$
4-(((3-(4-(benzyloxy)phenyl)-1-phenyl-1H-pyrazol-4yl)methyl)amino)benzoic acid 
     RDKit          3D

 60 64  0  0  0  0  0  0  0  0999 V2000
   -5.1575   -3.9180    2.2650 C   0  0  0  0  0  0  0  0  0  0  0  0
   -5.8847   -5.1385    2.7955 C   0  0  0  0  0  0  0  0  0  0  0  0
   -5.4366   -5.6607    3.8652 O   0  0  0  0  0  0  0  0  0  0  0  0
   -6.8900   -5.5480    2.1329 O   0  0  0  0  0  0  0  0  0  0  0  0
   -5.5884   -3.2658    1.1033 C   0  0  0  0  0  0  0  0  0  0  0  0
   -4.0314   -3.4042    2.9209 C   0  0  0  0  0  0  0  0  0  0  0  0
   -4.9166   -2.1353    0.6210 C   0  0  0  0  0  0  0  0  0  0  0  0
   -3.3621   -2.2725    2.4341 C   0  0  0  0  0  0  0  0  0  0  0  0
   -3.7967   -1.6128    1.2806 C   0  0  0  0  0  0  0  0  0  0  0  0
   -3.1729   -0.4959    0.7568 N   0  0  0  0  0  0  0  0  0  0  0  0
   -2.0303    0.1563    1.3616 C   0  0  0  0  0  0  0  0  0  0  0  0
   -1.5442    1.3521    0.6071 C   0  0  0  0  0  0  0  0  0  0  0  0
   -2.0809    2.6240    0.6562 C   0  0  0  0  0  0  0  0  0  0  0  0
   -0.4534    1.4606   -0.3025 C   0  0  0  0  0  0  0  0  0  0  0  0
   -1.3253    3.4227   -0.1649 N   0  0  0  0  0  0  0  0  0  0  0  0
   -0.3138    2.7247   -0.7319 N   0  0  0  0  0  0  0  0  0  0  0  0
    0.4705    0.4223   -0.7647 C   0  0  0  0  0  0  0  0  0  0  0  0
   -1.4971    4.8099   -0.4384 C   0  0  0  0  0  0  0  0  0  0  0  0
    1.8337    0.7146   -0.9123 C   0  0  0  0  0  0  0  0  0  0  0  0
    0.0254   -0.8663   -1.0771 C   0  0  0  0  0  0  0  0  0  0  0  0
   -2.5377    5.5447    0.1471 C   0  0  0  0  0  0  0  0  0  0  0  0
   -0.6088    5.4553   -1.3135 C   0  0  0  0  0  0  0  0  0  0  0  0
    2.7378   -0.2622   -1.3481 C   0  0  0  0  0  0  0  0  0  0  0  0
    0.9307   -1.8415   -1.5093 C   0  0  0  0  0  0  0  0  0  0  0  0
   -2.6823    6.9054   -0.1411 C   0  0  0  0  0  0  0  0  0  0  0  0
   -0.7597    6.8146   -1.5965 C   0  0  0  0  0  0  0  0  0  0  0  0
    2.2878   -1.5450   -1.6540 C   0  0  0  0  0  0  0  0  0  0  0  0
   -1.7955    7.5387   -1.0104 C   0  0  0  0  0  0  0  0  0  0  0  0
    3.0592   -2.5923   -2.0746 O   0  0  0  0  0  0  0  0  0  0  0  0
    4.3937   -2.3205   -2.5094 C   0  0  0  0  0  0  0  0  0  0  0  0
    5.4091   -2.3056   -1.3874 C   0  0  0  0  0  0  0  0  0  0  0  0
    5.2281   -3.0707   -0.2267 C   0  0  0  0  0  0  0  0  0  0  0  0
    6.5862   -1.5542   -1.5234 C   0  0  0  0  0  0  0  0  0  0  0  0
    6.1877   -3.0621    0.7869 C   0  0  0  0  0  0  0  0  0  0  0  0
    7.5460   -1.5478   -0.5093 C   0  0  0  0  0  0  0  0  0  0  0  0
    7.3450   -2.2993    0.6465 C   0  0  0  0  0  0  0  0  0  0  0  0
   -6.4591   -3.6484    0.5732 H   0  0  0  0  0  0  0  0  0  0  0  0
   -3.6757   -3.8980    3.8239 H   0  0  0  0  0  0  0  0  0  0  0  0
   -5.2894   -1.6662   -0.2845 H   0  0  0  0  0  0  0  0  0  0  0  0
   -2.4965   -1.9278    2.9888 H   0  0  0  0  0  0  0  0  0  0  0  0
   -3.5913   -0.0555   -0.0512 H   0  0  0  0  0  0  0  0  0  0  0  0
   -2.2989    0.4859    2.3742 H   0  0  0  0  0  0  0  0  0  0  0  0
   -1.2069   -0.5576    1.4795 H   0  0  0  0  0  0  0  0  0  0  0  0
   -2.9276    2.9960    1.2122 H   0  0  0  0  0  0  0  0  0  0  0  0
    2.2023    1.7116   -0.6781 H   0  0  0  0  0  0  0  0  0  0  0  0
   -1.0261   -1.1334   -0.9986 H   0  0  0  0  0  0  0  0  0  0  0  0
   -3.2525    5.0931    0.8279 H   0  0  0  0  0  0  0  0  0  0  0  0
    0.2062    4.9086   -1.7848 H   0  0  0  0  0  0  0  0  0  0  0  0
    3.7840    0.0130   -1.4188 H   0  0  0  0  0  0  0  0  0  0  0  0
    0.5676   -2.8411   -1.7383 H   0  0  0  0  0  0  0  0  0  0  0  0
   -3.4913    7.4715    0.3140 H   0  0  0  0  0  0  0  0  0  0  0  0
   -0.0677    7.3046   -2.2763 H   0  0  0  0  0  0  0  0  0  0  0  0
   -1.9129    8.5961   -1.2324 H   0  0  0  0  0  0  0  0  0  0  0  0
    4.6707   -3.1375   -3.1866 H   0  0  0  0  0  0  0  0  0  0  0  0
    4.4310   -1.4025   -3.1096 H   0  0  0  0  0  0  0  0  0  0  0  0
    4.3298   -3.6732   -0.1015 H   0  0  0  0  0  0  0  0  0  0  0  0
    6.7613   -0.9649   -2.4206 H   0  0  0  0  0  0  0  0  0  0  0  0
    6.0280   -3.6513    1.6862 H   0  0  0  0  0  0  0  0  0  0  0  0
    8.4507   -0.9564   -0.6213 H   0  0  0  0  0  0  0  0  0  0  0  0
    8.0898   -2.2932    1.4376 H   0  0  0  0  0  0  0  0  0  0  0  0
  1  2  1  0
  2  3  2  0
  2  4  1  0
  1  5  2  0
  6  1  1  0
  5  7  1  0
  8  6  2  0
  7  9  2  0
  9  8  1  0
  9 10  1  0
 10 11  1  0
 11 12  1  0
 12 13  2  0
 14 12  1  0
 13 15  1  0
 16 14  2  0
 14 17  1  0
 15 18  1  0
 15 16  1  0
 17 19  2  0
 20 17  1  0
 18 21  2  0
 22 18  1  0
 19 23  1  0
 24 20  2  0
 21 25  1  0
 26 22  2  0
 23 27  2  0
 27 24  1  0
 25 28  2  0
 28 26  1  0
 27 29  1  0
 29 30  1  0
 30 31  1  0
 31 32  2  0
 33 31  1  0
 32 34  1  0
 35 33  2  0
 34 36  2  0
 36 35  1  0
  5 37  1  0
  6 38  1  0
  7 39  1  0
  8 40  1  0
 10 41  1  0
 11 42  1  0
 11 43  1  0
 13 44  1  0
 19 45  1  0
 20 46  1  0
 21 47  1  0
 22 48  1  0
 23 49  1  0
 24 50  1  0
 25 51  1  0
 26 52  1  0
 28 53  1  0
 30 54  1  0
 30 55  1  0
 32 56  1  0
 33 57  1  0
 34 58  1  0
 35 59  1  0
 36 60  1  0
M  CHG  1   4  -1
M  END
>  <SMILES_raw>  (153) 
O=C(O)C1=CC=C(NCC2=CN(C3=CC=CC=C3)N=C2C4=CC=C(OCC5=CC=CC=C5)C=C4)C=C1

>  <Protonation_Method>  (153) 
MolScrub

>  <Target_pH>  (153) 
7.4

$$$$
N-((3-(4-(benzyloxy)phenyl)-1-(3-nitrophenyl)-1H-pyrazol4-yl)methyl)-L-leucin
     RDKit          3D

 68 71  0  0  0  0  0  0  0  0999 V2000
   -2.1983   -3.0605   -0.7752 C   0  0  2  0  0  0  0  0  0  0  0  0
   -2.0735   -1.5504   -0.5813 N   0  0  0  0  0  0  0  0  0  0  0  0
   -1.3832   -1.0707    0.6168 C   0  0  0  0  0  0  0  0  0  0  0  0
   -2.0469   -3.3820   -2.2944 C   0  0  0  0  0  0  0  0  0  0  0  0
   -3.4220   -3.6136   -0.0421 C   0  0  0  0  0  0  0  0  0  0  0  0
   -1.5662   -2.3603   -2.8891 O   0  0  0  0  0  0  0  0  0  0  0  0
   -2.4131   -4.5049   -2.6943 O   0  0  0  0  0  0  0  0  0  0  0  0
   -4.7740   -2.8976   -0.2478 C   0  0  0  0  0  0  0  0  0  0  0  0
   -5.8575   -3.6081    0.5717 C   0  0  0  0  0  0  0  0  0  0  0  0
   -5.2060   -2.8283   -1.7113 C   0  0  0  0  0  0  0  0  0  0  0  0
   -1.4218    0.4093    0.6975 C   0  0  0  0  0  0  0  0  0  0  0  0
   -2.5169    1.2255    0.9151 C   0  0  0  0  0  0  0  0  0  0  0  0
   -0.3364    1.3129    0.5614 C   0  0  0  0  0  0  0  0  0  0  0  0
   -2.0700    2.5304    0.8892 N   0  0  0  0  0  0  0  0  0  0  0  0
   -0.7362    2.5808    0.6818 N   0  0  0  0  0  0  0  0  0  0  0  0
    1.0577    0.9881    0.3143 C   0  0  0  0  0  0  0  0  0  0  0  0
   -2.8259    3.7264    1.0485 C   0  0  0  0  0  0  0  0  0  0  0  0
    1.9078    0.6795    1.3819 C   0  0  0  0  0  0  0  0  0  0  0  0
    1.5482    0.9572   -0.9934 C   0  0  0  0  0  0  0  0  0  0  0  0
   -4.2095    3.6878    1.2834 C   0  0  0  0  0  0  0  0  0  0  0  0
   -2.1716    4.9686    0.9650 C   0  0  0  0  0  0  0  0  0  0  0  0
    3.2396    0.3220    1.1424 C   0  0  0  0  0  0  0  0  0  0  0  0
    2.8777    0.5993   -1.2263 C   0  0  0  0  0  0  0  0  0  0  0  0
   -4.9324    4.8763    1.4332 C   0  0  0  0  0  0  0  0  0  0  0  0
   -2.9067    6.1525    1.1172 C   0  0  0  0  0  0  0  0  0  0  0  0
    3.7263    0.2705   -0.1649 C   0  0  0  0  0  0  0  0  0  0  0  0
   -4.2871    6.1104    1.3515 C   0  0  0  0  0  0  0  0  0  0  0  0
   -2.2256    7.4515    1.0341 N   0  0  0  0  0  0  0  0  0  0  0  0
    4.9961   -0.0675   -0.5382 O   0  0  0  0  0  0  0  0  0  0  0  0
   -2.9281    8.4718    1.0756 O   0  0  0  0  0  0  0  0  0  0  0  0
   -0.9915    7.4517    0.9328 O   0  0  0  0  0  0  0  0  0  0  0  0
    5.8552   -0.5965    0.4724 C   0  0  0  0  0  0  0  0  0  0  0  0
    7.1201   -1.1027   -0.1788 C   0  0  0  0  0  0  0  0  0  0  0  0
    7.0551   -2.0581   -1.2052 C   0  0  0  0  0  0  0  0  0  0  0  0
    8.3772   -0.6523    0.2474 C   0  0  0  0  0  0  0  0  0  0  0  0
    8.2214   -2.5459   -1.7974 C   0  0  0  0  0  0  0  0  0  0  0  0
    9.5427   -1.1421   -0.3460 C   0  0  0  0  0  0  0  0  0  0  0  0
    9.4650   -2.0874   -1.3675 C   0  0  0  0  0  0  0  0  0  0  0  0
   -1.2964   -3.4905   -0.3195 H   0  0  0  0  0  0  0  0  0  0  0  0
   -2.9615   -1.0878   -0.7843 H   0  0  0  0  0  0  0  0  0  0  0  0
   -1.5235   -1.3168   -1.4477 H   0  0  0  0  0  0  0  0  0  0  0  0
   -0.3613   -1.4595    0.5831 H   0  0  0  0  0  0  0  0  0  0  0  0
   -1.8910   -1.5036    1.4846 H   0  0  0  0  0  0  0  0  0  0  0  0
   -3.2010   -3.6043    1.0342 H   0  0  0  0  0  0  0  0  0  0  0  0
   -3.5396   -4.6722   -0.3076 H   0  0  0  0  0  0  0  0  0  0  0  0
   -4.7025   -1.8744    0.1399 H   0  0  0  0  0  0  0  0  0  0  0  0
   -5.9980   -4.6406    0.2337 H   0  0  0  0  0  0  0  0  0  0  0  0
   -5.5906   -3.6317    1.6336 H   0  0  0  0  0  0  0  0  0  0  0  0
   -6.8174   -3.0877    0.4825 H   0  0  0  0  0  0  0  0  0  0  0  0
   -4.5342   -2.1939   -2.2965 H   0  0  0  0  0  0  0  0  0  0  0  0
   -5.2284   -3.8241   -2.1671 H   0  0  0  0  0  0  0  0  0  0  0  0
   -6.2097   -2.3974   -1.7992 H   0  0  0  0  0  0  0  0  0  0  0  0
   -3.5561    0.9828    1.0777 H   0  0  0  0  0  0  0  0  0  0  0  0
    1.5459    0.7302    2.4069 H   0  0  0  0  0  0  0  0  0  0  0  0
    0.9106    1.2176   -1.8362 H   0  0  0  0  0  0  0  0  0  0  0  0
   -4.7602    2.7546    1.3545 H   0  0  0  0  0  0  0  0  0  0  0  0
   -1.0980    5.0133    0.7767 H   0  0  0  0  0  0  0  0  0  0  0  0
    3.8712    0.1055    1.9975 H   0  0  0  0  0  0  0  0  0  0  0  0
    3.2581    0.5779   -2.2462 H   0  0  0  0  0  0  0  0  0  0  0  0
   -6.0053    4.8404    1.6143 H   0  0  0  0  0  0  0  0  0  0  0  0
   -4.8686    7.0229    1.4708 H   0  0  0  0  0  0  0  0  0  0  0  0
    5.3814   -1.4391    0.9921 H   0  0  0  0  0  0  0  0  0  0  0  0
    6.0932    0.1922    1.1961 H   0  0  0  0  0  0  0  0  0  0  0  0
    6.0889   -2.4192   -1.5531 H   0  0  0  0  0  0  0  0  0  0  0  0
    8.4605    0.0876    1.0402 H   0  0  0  0  0  0  0  0  0  0  0  0
    8.1578   -3.2803   -2.5965 H   0  0  0  0  0  0  0  0  0  0  0  0
   10.5127   -0.7827   -0.0134 H   0  0  0  0  0  0  0  0  0  0  0  0
   10.3736   -2.4630   -1.8311 H   0  0  0  0  0  0  0  0  0  0  0  0
  1  2  1  0
  2  3  1  0
  1  4  1  0
  5  1  1  0
  4  6  2  0
  4  7  1  0
  8  5  1  0
  9  8  1  0
  8 10  1  0
  3 11  1  0
 11 12  2  0
 13 11  1  0
 12 14  1  0
 15 13  2  0
 13 16  1  0
 14 17  1  0
 14 15  1  0
 16 18  2  0
 19 16  1  0
 17 20  2  0
 21 17  1  0
 18 22  1  0
 23 19  2  0
 20 24  1  0
 25 21  2  0
 22 26  2  0
 26 23  1  0
 24 27  2  0
 27 25  1  0
 25 28  1  0
 26 29  1  0
 28 30  1  0
 28 31  2  0
 29 32  1  0
 32 33  1  0
 33 34  2  0
 35 33  1  0
 34 36  1  0
 37 35  2  0
 36 38  2  0
 38 37  1  0
  1 39  1  1
  2 40  1  0
  2 41  1  0
  3 42  1  0
  3 43  1  0
  5 44  1  0
  5 45  1  0
  8 46  1  0
  9 47  1  0
  9 48  1  0
  9 49  1  0
 10 50  1  0
 10 51  1  0
 10 52  1  0
 12 53  1  0
 18 54  1  0
 19 55  1  0
 20 56  1  0
 21 57  1  0
 22 58  1  0
 23 59  1  0
 24 60  1  0
 27 61  1  0
 32 62  1  0
 32 63  1  0
 34 64  1  0
 35 65  1  0
 36 66  1  0
 37 67  1  0
 38 68  1  0
M  CHG  4   2   1   7  -1  28   1  30  -1
M  END
>  <SMILES_raw>  (154) 
CC(C)C[C@@H](C(O)=O)NCC1=CN(C2=CC=CC([N+]([O-])=O)=C2)N=C1C3=CC=C(OCC4=CC=CC=C4)C=C3

>  <Protonation_Method>  (154) 
MolScrub

>  <Target_pH>  (154) 
7.4

$$$$
N-((3-(4-((3-chlorobenzyl)oxy)phenyl) -1-(3-nitrophenyl)-1H-pyrazol-4-yl)methyl)-L-phenylalanin
     RDKit          3D

 69 73  0  0  0  0  0  0  0  0999 V2000
   -3.9736   -1.3425   -0.5391 C   0  0  2  0  0  0  0  0  0  0  0  0
   -2.6906   -0.4846   -0.4744 N   0  0  0  0  0  0  0  0  0  0  0  0
   -2.3144    0.0331    0.8634 C   0  0  0  0  0  0  0  0  0  0  0  0
   -5.2012   -0.3858   -0.3699 C   0  0  0  0  0  0  0  0  0  0  0  0
   -3.8863   -2.5321    0.4218 C   0  0  0  0  0  0  0  0  0  0  0  0
   -4.8631    0.8006   -0.7043 O   0  0  0  0  0  0  0  0  0  0  0  0
   -6.2515   -0.8425    0.1265 O   0  0  0  0  0  0  0  0  0  0  0  0
   -4.3393   -3.8243   -0.2204 C   0  0  0  0  0  0  0  0  0  0  0  0
   -5.7045   -4.0981   -0.3764 C   0  0  0  0  0  0  0  0  0  0  0  0
   -3.4014   -4.7573   -0.6882 C   0  0  0  0  0  0  0  0  0  0  0  0
   -6.1247   -5.2801   -0.9878 C   0  0  0  0  0  0  0  0  0  0  0  0
   -3.8248   -5.9404   -1.2964 C   0  0  0  0  0  0  0  0  0  0  0  0
   -5.1852   -6.2006   -1.4492 C   0  0  0  0  0  0  0  0  0  0  0  0
   -1.4748    1.2474    0.7341 C   0  0  0  0  0  0  0  0  0  0  0  0
   -1.9238    2.5522    0.6874 C   0  0  0  0  0  0  0  0  0  0  0  0
   -0.0693    1.3530    0.5580 C   0  0  0  0  0  0  0  0  0  0  0  0
   -0.8283    3.3627    0.5126 N   0  0  0  0  0  0  0  0  0  0  0  0
    0.3036    2.6287    0.4042 N   0  0  0  0  0  0  0  0  0  0  0  0
    0.9108    0.2763    0.4646 C   0  0  0  0  0  0  0  0  0  0  0  0
   -0.7889    4.7838    0.4316 C   0  0  0  0  0  0  0  0  0  0  0  0
    1.7501    0.1952   -0.6532 C   0  0  0  0  0  0  0  0  0  0  0  0
    1.0256   -0.6857    1.4713 C   0  0  0  0  0  0  0  0  0  0  0  0
   -1.9639    5.5471    0.5198 C   0  0  0  0  0  0  0  0  0  0  0  0
    0.4483    5.4308    0.2685 C   0  0  0  0  0  0  0  0  0  0  0  0
    2.6779   -0.8458   -0.7749 C   0  0  0  0  0  0  0  0  0  0  0  0
    1.9508   -1.7257    1.3442 C   0  0  0  0  0  0  0  0  0  0  0  0
   -1.9055    6.9443    0.4504 C   0  0  0  0  0  0  0  0  0  0  0  0
    0.4939    6.8318    0.2007 C   0  0  0  0  0  0  0  0  0  0  0  0
    2.7826   -1.8117    0.2240 C   0  0  0  0  0  0  0  0  0  0  0  0
   -0.6797    7.5915    0.2902 C   0  0  0  0  0  0  0  0  0  0  0  0
    1.7851    7.5118    0.0403 N   0  0  0  0  0  0  0  0  0  0  0  0
    3.6498   -2.8679    0.2441 O   0  0  0  0  0  0  0  0  0  0  0  0
    2.7786    6.8138   -0.2059 O   0  0  0  0  0  0  0  0  0  0  0  0
    1.8040    8.7453    0.1591 O   0  0  0  0  0  0  0  0  0  0  0  0
    4.6389   -2.9700   -0.7855 C   0  0  0  0  0  0  0  0  0  0  0  0
    5.7835   -1.9962   -0.6133 C   0  0  0  0  0  0  0  0  0  0  0  0
    6.3716   -1.3896   -1.7355 C   0  0  0  0  0  0  0  0  0  0  0  0
    6.2988   -1.7090    0.6604 C   0  0  0  0  0  0  0  0  0  0  0  0
    7.4275   -0.4887   -1.5845 C   0  0  0  0  0  0  0  0  0  0  0  0
    7.3525   -0.8078    0.8045 C   0  0  0  0  0  0  0  0  0  0  0  0
    7.9156   -0.1929   -0.3124 C   0  0  0  0  0  0  0  0  0  0  0  0
    7.9628   -0.4516    2.3725 Cl  0  0  0  0  0  0  0  0  0  0  0  0
   -3.9906   -1.6840   -1.5828 H   0  0  0  0  0  0  0  0  0  0  0  0
   -1.9174   -0.8528   -1.0301 H   0  0  0  0  0  0  0  0  0  0  0  0
   -3.0617    0.3655   -0.9599 H   0  0  0  0  0  0  0  0  0  0  0  0
   -3.2307    0.2645    1.4207 H   0  0  0  0  0  0  0  0  0  0  0  0
   -1.7948   -0.7721    1.3927 H   0  0  0  0  0  0  0  0  0  0  0  0
   -4.4778   -2.3559    1.3313 H   0  0  0  0  0  0  0  0  0  0  0  0
   -2.8554   -2.6848    0.7662 H   0  0  0  0  0  0  0  0  0  0  0  0
   -6.4557   -3.3907   -0.0237 H   0  0  0  0  0  0  0  0  0  0  0  0
   -2.3357   -4.5748   -0.5792 H   0  0  0  0  0  0  0  0  0  0  0  0
   -7.1879   -5.4787   -1.1044 H   0  0  0  0  0  0  0  0  0  0  0  0
   -3.0937   -6.6627   -1.6512 H   0  0  0  0  0  0  0  0  0  0  0  0
   -5.5171   -7.1204   -1.9258 H   0  0  0  0  0  0  0  0  0  0  0  0
   -2.9301    2.9439    0.7519 H   0  0  0  0  0  0  0  0  0  0  0  0
    1.6960    0.9522   -1.4339 H   0  0  0  0  0  0  0  0  0  0  0  0
    0.4256   -0.6244    2.3766 H   0  0  0  0  0  0  0  0  0  0  0  0
   -2.9439    5.0915    0.6474 H   0  0  0  0  0  0  0  0  0  0  0  0
    1.3683    4.8502    0.2002 H   0  0  0  0  0  0  0  0  0  0  0  0
    3.3096   -0.8558   -1.6561 H   0  0  0  0  0  0  0  0  0  0  0  0
    2.0430   -2.4645    2.1368 H   0  0  0  0  0  0  0  0  0  0  0  0
   -2.8212    7.5299    0.5246 H   0  0  0  0  0  0  0  0  0  0  0  0
   -0.6557    8.6794    0.2415 H   0  0  0  0  0  0  0  0  0  0  0  0
    4.1727   -2.8976   -1.7757 H   0  0  0  0  0  0  0  0  0  0  0  0
    5.0553   -3.9819   -0.7214 H   0  0  0  0  0  0  0  0  0  0  0  0
    6.0074   -1.6106   -2.7365 H   0  0  0  0  0  0  0  0  0  0  0  0
    5.8688   -2.1819    1.5419 H   0  0  0  0  0  0  0  0  0  0  0  0
    7.8699   -0.0135   -2.4575 H   0  0  0  0  0  0  0  0  0  0  0  0
    8.7352    0.5115   -0.1978 H   0  0  0  0  0  0  0  0  0  0  0  0
  1  2  1  0
  2  3  1  0
  1  4  1  0
  1  5  1  0
  4  6  2  0
  4  7  1  0
  5  8  1  0
  8  9  2  0
 10  8  1  0
  9 11  1  0
 12 10  2  0
 11 13  2  0
 13 12  1  0
  3 14  1  0
 14 15  2  0
 16 14  1  0
 15 17  1  0
 18 16  2  0
 16 19  1  0
 17 20  1  0
 17 18  1  0
 19 21  2  0
 22 19  1  0
 20 23  2  0
 24 20  1  0
 21 25  1  0
 26 22  2  0
 23 27  1  0
 28 24  2  0
 25 29  2  0
 29 26  1  0
 27 30  2  0
 30 28  1  0
 28 31  1  0
 29 32  1  0
 31 33  1  0
 31 34  2  0
 32 35  1  0
 35 36  1  0
 36 37  2  0
 38 36  1  0
 37 39  1  0
 40 38  2  0
 39 41  2  0
 41 40  1  0
 40 42  1  0
  1 43  1  6
  2 44  1  0
  2 45  1  0
  3 46  1  0
  3 47  1  0
  5 48  1  0
  5 49  1  0
  9 50  1  0
 10 51  1  0
 11 52  1  0
 12 53  1  0
 13 54  1  0
 15 55  1  0
 21 56  1  0
 22 57  1  0
 23 58  1  0
 24 59  1  0
 25 60  1  0
 26 61  1  0
 27 62  1  0
 30 63  1  0
 35 64  1  0
 35 65  1  0
 37 66  1  0
 38 67  1  0
 39 68  1  0
 41 69  1  0
M  CHG  4   2   1   7  -1  31   1  33  -1
M  END
>  <SMILES_raw>  (155) 
O=C(O)[C@H](CC1=CC=CC=C1)NCC2=CN(C3=CC=CC([N+]([O-])=O)=C3)N=C2C4=CC=C(OCC5=CC=CC(Cl)=C5)C=C4

>  <Protonation_Method>  (155) 
MolScrub

>  <Target_pH>  (155) 
7.4

$$$$
N-((3-(4-((4-chlorobenzyl)oxy)phenyl)-1-(3-nitrophenyl)-1H-pyrazol-4-yl)methyl)-L-tryptophan
     RDKit          3D

 73 78  0  0  0  0  0  0  0  0999 V2000
   -3.2775   -0.3314    0.9718 C   0  0  2  0  0  0  0  0  0  0  0  0
   -2.7189   -0.7354    2.3607 N   0  0  0  0  0  0  0  0  0  0  0  0
   -1.2817   -1.0561    2.5228 C   0  0  0  0  0  0  0  0  0  0  0  0
   -3.7418   -1.6214    0.2312 C   0  0  0  0  0  0  0  0  0  0  0  0
   -2.3615    0.6364    0.2231 C   0  0  0  0  0  0  0  0  0  0  0  0
   -3.5840   -1.7100   -1.0030 O   0  0  0  0  0  0  0  0  0  0  0  0
   -4.1435   -2.4789    1.0936 O   0  0  0  0  0  0  0  0  0  0  0  0
   -3.1489    1.6788   -0.5158 C   0  0  0  0  0  0  0  0  0  0  0  0
   -3.6677    1.5441   -1.7879 C   0  0  0  0  0  0  0  0  0  0  0  0
   -3.5558    2.9662   -0.0358 C   0  0  0  0  0  0  0  0  0  0  0  0
   -4.3872    2.6691   -2.0840 N   0  0  0  0  0  0  0  0  0  0  0  0
   -4.3396    3.5524   -1.0311 C   0  0  0  0  0  0  0  0  0  0  0  0
   -3.3503    3.6807    1.1631 C   0  0  0  0  0  0  0  0  0  0  0  0
   -4.9357    4.8114   -0.8840 C   0  0  0  0  0  0  0  0  0  0  0  0
   -3.9349    4.9438    1.3233 C   0  0  0  0  0  0  0  0  0  0  0  0
   -4.7199    5.4960    0.3150 C   0  0  0  0  0  0  0  0  0  0  0  0
   -0.7241   -2.0972    1.6306 C   0  0  0  0  0  0  0  0  0  0  0  0
   -1.2278   -3.3563    1.3618 C   0  0  0  0  0  0  0  0  0  0  0  0
    0.4641   -2.0362    0.8545 C   0  0  0  0  0  0  0  0  0  0  0  0
   -0.4522   -3.9080    0.3676 N   0  0  0  0  0  0  0  0  0  0  0  0
    0.6537   -3.1591    0.1557 N   0  0  0  0  0  0  0  0  0  0  0  0
    1.4154   -0.9442    0.7386 C   0  0  0  0  0  0  0  0  0  0  0  0
   -0.6837   -5.0959   -0.3787 C   0  0  0  0  0  0  0  0  0  0  0  0
    1.4521   -0.1886   -0.4370 C   0  0  0  0  0  0  0  0  0  0  0  0
    2.3065   -0.6560    1.7752 C   0  0  0  0  0  0  0  0  0  0  0  0
    0.3101   -5.5508   -1.2629 C   0  0  0  0  0  0  0  0  0  0  0  0
   -1.8964   -5.7953   -0.2753 C   0  0  0  0  0  0  0  0  0  0  0  0
    2.3804    0.8462   -0.5827 C   0  0  0  0  0  0  0  0  0  0  0  0
    3.2348    0.3782    1.6235 C   0  0  0  0  0  0  0  0  0  0  0  0
    0.1033   -6.6928   -2.0364 C   0  0  0  0  0  0  0  0  0  0  0  0
   -2.0881   -6.9461   -1.0531 C   0  0  0  0  0  0  0  0  0  0  0  0
    3.2874    1.1217    0.4400 C   0  0  0  0  0  0  0  0  0  0  0  0
   -1.0938   -7.3976   -1.9332 C   0  0  0  0  0  0  0  0  0  0  0  0
   -3.3505   -7.6871   -0.9663 N   0  0  0  0  0  0  0  0  0  0  0  0
    4.2590    2.0862    0.4060 O   0  0  0  0  0  0  0  0  0  0  0  0
   -4.0941   -7.4565   -0.0047 O   0  0  0  0  0  0  0  0  0  0  0  0
   -3.5888   -8.5183   -1.8540 O   0  0  0  0  0  0  0  0  0  0  0  0
    4.5901    2.6037   -0.8831 C   0  0  0  0  0  0  0  0  0  0  0  0
    5.8282    3.4573   -0.7569 C   0  0  0  0  0  0  0  0  0  0  0  0
    5.7829    4.8303   -1.0365 C   0  0  0  0  0  0  0  0  0  0  0  0
    7.0481    2.8813   -0.3704 C   0  0  0  0  0  0  0  0  0  0  0  0
    6.9365    5.6119   -0.9346 C   0  0  0  0  0  0  0  0  0  0  0  0
    8.2008    3.6630   -0.2663 C   0  0  0  0  0  0  0  0  0  0  0  0
    8.1390    5.0253   -0.5492 C   0  0  0  0  0  0  0  0  0  0  0  0
    9.5588    5.9903   -0.4178 Cl  0  0  0  0  0  0  0  0  0  0  0  0
   -4.2139    0.1823    1.2362 H   0  0  0  0  0  0  0  0  0  0  0  0
   -3.2450   -1.6357    2.4739 H   0  0  0  0  0  0  0  0  0  0  0  0
   -3.0789   -0.1037    3.0762 H   0  0  0  0  0  0  0  0  0  0  0  0
   -0.7380   -0.1093    2.4426 H   0  0  0  0  0  0  0  0  0  0  0  0
   -1.1758   -1.3912    3.5622 H   0  0  0  0  0  0  0  0  0  0  0  0
   -1.6971    1.1630    0.9164 H   0  0  0  0  0  0  0  0  0  0  0  0
   -1.7196    0.0987   -0.4828 H   0  0  0  0  0  0  0  0  0  0  0  0
   -3.6085    0.7213   -2.4927 H   0  0  0  0  0  0  0  0  0  0  0  0
   -4.8961    2.8223   -2.9435 H   0  0  0  0  0  0  0  0  0  0  0  0
   -2.7393    3.2651    1.9576 H   0  0  0  0  0  0  0  0  0  0  0  0
   -5.5476    5.2455   -1.6682 H   0  0  0  0  0  0  0  0  0  0  0  0
   -3.7755    5.4996    2.2445 H   0  0  0  0  0  0  0  0  0  0  0  0
   -5.1735    6.4755    0.4591 H   0  0  0  0  0  0  0  0  0  0  0  0
   -2.1124   -3.8583    1.7272 H   0  0  0  0  0  0  0  0  0  0  0  0
    0.7695   -0.4142   -1.2549 H   0  0  0  0  0  0  0  0  0  0  0  0
    2.3144   -1.2505    2.6860 H   0  0  0  0  0  0  0  0  0  0  0  0
    1.2541   -5.0182   -1.3651 H   0  0  0  0  0  0  0  0  0  0  0  0
   -2.7025   -5.4433    0.3665 H   0  0  0  0  0  0  0  0  0  0  0  0
    2.3683    1.4088   -1.5094 H   0  0  0  0  0  0  0  0  0  0  0  0
    3.9428    0.5884    2.4220 H   0  0  0  0  0  0  0  0  0  0  0  0
    0.8682   -7.0244   -2.7371 H   0  0  0  0  0  0  0  0  0  0  0  0
   -1.2384   -8.2807   -2.5507 H   0  0  0  0  0  0  0  0  0  0  0  0
    3.7588    3.2085   -1.2655 H   0  0  0  0  0  0  0  0  0  0  0  0
    4.8021    1.7911   -1.5932 H   0  0  0  0  0  0  0  0  0  0  0  0
    4.8501    5.3037   -1.3344 H   0  0  0  0  0  0  0  0  0  0  0  0
    7.1025    1.8189   -0.1428 H   0  0  0  0  0  0  0  0  0  0  0  0
    6.8898    6.6750   -1.1551 H   0  0  0  0  0  0  0  0  0  0  0  0
    9.1384    3.2065    0.0387 H   0  0  0  0  0  0  0  0  0  0  0  0
  1  2  1  0
  2  3  1  0
  1  4  1  0
  1  5  1  0
  4  6  2  0
  4  7  1  0
  5  8  1  0
  8  9  2  0
 10  8  1  0
  9 11  1  0
 12 10  2  0
 10 13  1  0
 11 12  1  0
 14 12  1  0
 13 15  2  0
 16 14  2  0
 15 16  1  0
  3 17  1  0
 17 18  2  0
 19 17  1  0
 18 20  1  0
 21 19  2  0
 19 22  1  0
 20 23  1  0
 20 21  1  0
 22 24  2  0
 25 22  1  0
 23 26  2  0
 27 23  1  0
 24 28  1  0
 29 25  2  0
 26 30  1  0
 31 27  2  0
 28 32  2  0
 32 29  1  0
 30 33  2  0
 33 31  1  0
 31 34  1  0
 32 35  1  0
 34 36  1  0
 34 37  2  0
 35 38  1  0
 38 39  1  0
 39 40  2  0
 41 39  1  0
 40 42  1  0
 43 41  2  0
 42 44  2  0
 44 43  1  0
 44 45  1  0
  1 46  1  1
  2 47  1  0
  2 48  1  0
  3 49  1  0
  3 50  1  0
  5 51  1  0
  5 52  1  0
  9 53  1  0
 11 54  1  0
 13 55  1  0
 14 56  1  0
 15 57  1  0
 16 58  1  0
 18 59  1  0
 24 60  1  0
 25 61  1  0
 26 62  1  0
 27 63  1  0
 28 64  1  0
 29 65  1  0
 30 66  1  0
 33 67  1  0
 38 68  1  0
 38 69  1  0
 40 70  1  0
 41 71  1  0
 42 72  1  0
 43 73  1  0
M  CHG  4   2   1   7  -1  34   1  36  -1
M  END
>  <SMILES_raw>  (156) 
O=C(O)[C@H](CC1=CNC2=C1C=CC=C2)NCC3=CN(C4=CC=CC([N+]([O-])=O)=C4)N=C3C5=CC=C(OCC6=CC=C(Cl)C=C6)C=C5

>  <Protonation_Method>  (156) 
MolScrub

>  <Target_pH>  (156) 
7.4

$$$$
N-((3-(4-((4-chlorobenzyl)oxy)phenyl)-1-(3-nitrophenyl)-1H-pyrazol-4-yl)methyl)-L-isoleucin
     RDKit          3D

 68 71  0  0  0  0  0  0  0  0999 V2000
   -3.0249   -1.8827   -0.8467 C   0  0  2  0  0  0  0  0  0  0  0  0
   -2.1875   -0.6521   -0.4354 N   0  0  0  0  0  0  0  0  0  0  0  0
   -2.1719    0.4249   -1.4478 C   0  0  0  0  0  0  0  0  0  0  0  0
   -4.5242   -1.5396   -0.5639 C   0  0  0  0  0  0  0  0  0  0  0  0
   -2.4637   -3.1082   -0.0912 C   0  0  2  0  0  0  0  0  0  0  0  0
   -5.3785   -2.0535   -1.3167 O   0  0  0  0  0  0  0  0  0  0  0  0
   -4.5953   -0.6402    0.3393 O   0  0  0  0  0  0  0  0  0  0  0  0
   -3.0134   -4.4503   -0.6296 C   0  0  0  0  0  0  0  0  0  0  0  0
   -2.5711   -3.0013    1.4346 C   0  0  0  0  0  0  0  0  0  0  0  0
   -4.3052   -4.9613   -0.0053 C   0  0  0  0  0  0  0  0  0  0  0  0
   -1.6537    1.6965   -0.8854 C   0  0  0  0  0  0  0  0  0  0  0  0
   -2.3657    2.8587   -0.6612 C   0  0  0  0  0  0  0  0  0  0  0  0
   -0.3447    1.9951   -0.4192 C   0  0  0  0  0  0  0  0  0  0  0  0
   -1.5035    3.7754   -0.1045 N   0  0  0  0  0  0  0  0  0  0  0  0
   -0.2715    3.2385    0.0668 N   0  0  0  0  0  0  0  0  0  0  0  0
    0.8109    1.1076   -0.3731 C   0  0  0  0  0  0  0  0  0  0  0  0
   -1.7740    5.1218    0.2734 C   0  0  0  0  0  0  0  0  0  0  0  0
    1.4434    0.8484    0.8494 C   0  0  0  0  0  0  0  0  0  0  0  0
    1.2832    0.4850   -1.5313 C   0  0  0  0  0  0  0  0  0  0  0  0
   -0.7356    5.9114    0.7963 C   0  0  0  0  0  0  0  0  0  0  0  0
   -3.0548    5.6743    0.1318 C   0  0  0  0  0  0  0  0  0  0  0  0
    2.5242   -0.0395    0.9196 C   0  0  0  0  0  0  0  0  0  0  0  0
    2.3603   -0.4019   -1.4572 C   0  0  0  0  0  0  0  0  0  0  0  0
   -0.9681    7.2380    1.1703 C   0  0  0  0  0  0  0  0  0  0  0  0
   -3.2757    7.0097    0.5070 C   0  0  0  0  0  0  0  0  0  0  0  0
    2.9853   -0.6694   -0.2357 C   0  0  0  0  0  0  0  0  0  0  0  0
   -2.2387    7.7922    1.0309 C   0  0  0  0  0  0  0  0  0  0  0  0
   -4.6145    7.5918    0.3551 N   0  0  0  0  0  0  0  0  0  0  0  0
    4.0218   -1.5557   -0.3130 O   0  0  0  0  0  0  0  0  0  0  0  0
   -5.4371    6.9636   -0.3269 O   0  0  0  0  0  0  0  0  0  0  0  0
   -4.8394    8.6726    0.9175 O   0  0  0  0  0  0  0  0  0  0  0  0
    4.7839   -1.7807    0.8725 C   0  0  0  0  0  0  0  0  0  0  0  0
    5.9485   -2.6741    0.5165 C   0  0  0  0  0  0  0  0  0  0  0  0
    6.0271   -3.9862    1.0060 C   0  0  0  0  0  0  0  0  0  0  0  0
    6.9687   -2.1973   -0.3224 C   0  0  0  0  0  0  0  0  0  0  0  0
    7.1086   -4.8036    0.6672 C   0  0  0  0  0  0  0  0  0  0  0  0
    8.0496   -3.0143   -0.6605 C   0  0  0  0  0  0  0  0  0  0  0  0
    8.1148   -4.3143   -0.1636 C   0  0  0  0  0  0  0  0  0  0  0  0
    9.4432   -5.3250   -0.5809 Cl  0  0  0  0  0  0  0  0  0  0  0  0
   -2.8621   -2.0072   -1.9231 H   0  0  0  0  0  0  0  0  0  0  0  0
   -1.2690   -0.8769   -0.0512 H   0  0  0  0  0  0  0  0  0  0  0  0
   -2.7939   -0.2887    0.3388 H   0  0  0  0  0  0  0  0  0  0  0  0
   -1.5528    0.0770   -2.2805 H   0  0  0  0  0  0  0  0  0  0  0  0
   -3.1945    0.5591   -1.8175 H   0  0  0  0  0  0  0  0  0  0  0  0
   -1.3868   -3.1311   -0.3159 H   0  0  0  0  0  0  0  0  0  0  0  0
   -3.1338   -4.3882   -1.7174 H   0  0  0  0  0  0  0  0  0  0  0  0
   -2.2486   -5.2192   -0.4571 H   0  0  0  0  0  0  0  0  0  0  0  0
   -2.1291   -3.8826    1.9128 H   0  0  0  0  0  0  0  0  0  0  0  0
   -2.0345   -2.1266    1.8121 H   0  0  0  0  0  0  0  0  0  0  0  0
   -3.6097   -2.9203    1.7706 H   0  0  0  0  0  0  0  0  0  0  0  0
   -5.1207   -4.2407   -0.0837 H   0  0  0  0  0  0  0  0  0  0  0  0
   -4.1675   -5.2037    1.0529 H   0  0  0  0  0  0  0  0  0  0  0  0
   -4.6230   -5.8805   -0.5100 H   0  0  0  0  0  0  0  0  0  0  0  0
   -3.4054    3.0857   -0.8517 H   0  0  0  0  0  0  0  0  0  0  0  0
    1.0994    1.3421    1.7576 H   0  0  0  0  0  0  0  0  0  0  0  0
    0.8433    0.6971   -2.5027 H   0  0  0  0  0  0  0  0  0  0  0  0
    0.2691    5.5064    0.9156 H   0  0  0  0  0  0  0  0  0  0  0  0
   -3.8846    5.0919   -0.2573 H   0  0  0  0  0  0  0  0  0  0  0  0
    2.9802   -0.2105    1.8895 H   0  0  0  0  0  0  0  0  0  0  0  0
    2.7289   -0.8790   -2.3632 H   0  0  0  0  0  0  0  0  0  0  0  0
   -0.1541    7.8364    1.5745 H   0  0  0  0  0  0  0  0  0  0  0  0
   -2.4029    8.8266    1.3262 H   0  0  0  0  0  0  0  0  0  0  0  0
    4.1568   -2.2611    1.6337 H   0  0  0  0  0  0  0  0  0  0  0  0
    5.1795   -0.8383    1.2723 H   0  0  0  0  0  0  0  0  0  0  0  0
    5.2461   -4.3842    1.6513 H   0  0  0  0  0  0  0  0  0  0  0  0
    6.9184   -1.1850   -0.7205 H   0  0  0  0  0  0  0  0  0  0  0  0
    7.1585   -5.8200    1.0502 H   0  0  0  0  0  0  0  0  0  0  0  0
    8.8322   -2.6329   -1.3111 H   0  0  0  0  0  0  0  0  0  0  0  0
  1  2  1  0
  2  3  1  0
  1  4  1  0
  5  1  1  0
  4  6  2  0
  4  7  1  0
  8  5  1  0
  5  9  1  0
 10  8  1  0
  3 11  1  0
 11 12  2  0
 13 11  1  0
 12 14  1  0
 15 13  2  0
 13 16  1  0
 14 17  1  0
 14 15  1  0
 16 18  2  0
 19 16  1  0
 17 20  2  0
 21 17  1  0
 18 22  1  0
 23 19  2  0
 20 24  1  0
 25 21  2  0
 22 26  2  0
 26 23  1  0
 24 27  2  0
 27 25  1  0
 25 28  1  0
 26 29  1  0
 28 30  1  0
 28 31  2  0
 29 32  1  0
 32 33  1  0
 33 34  2  0
 35 33  1  0
 34 36  1  0
 37 35  2  0
 36 38  2  0
 38 37  1  0
 38 39  1  0
  1 40  1  6
  2 41  1  0
  2 42  1  0
  3 43  1  0
  3 44  1  0
  5 45  1  1
  8 46  1  0
  8 47  1  0
  9 48  1  0
  9 49  1  0
  9 50  1  0
 10 51  1  0
 10 52  1  0
 10 53  1  0
 12 54  1  0
 18 55  1  0
 19 56  1  0
 20 57  1  0
 21 58  1  0
 22 59  1  0
 23 60  1  0
 24 61  1  0
 27 62  1  0
 32 63  1  0
 32 64  1  0
 34 65  1  0
 35 66  1  0
 36 67  1  0
 37 68  1  0
M  CHG  4   2   1   7  -1  28   1  30  -1
M  END
>  <SMILES_raw>  (157) 
CC[C@H](C)[C@@H](C(O)=O)NCC1=CN(C2=CC=CC([N+]([O-])=O)=C2)N=C1C3=CC=C(OCC4=CC=C(Cl)C=C4)C=C3

>  <Protonation_Method>  (157) 
MolScrub

>  <Target_pH>  (157) 
7.4

$$$$
1-((3-(3-((3-chlorobenzyl)oxy)phenyl)-1-(3-nitrophenyl)-1H-pyrazol-4-yl)methyl)piperidin-2-carboxylic acid 
     RDKit          3D

 66 70  0  0  0  0  0  0  0  0999 V2000
   -3.2052    3.5393   -1.4592 C   0  0  0  0  0  0  0  0  0  0  0  0
   -3.0383    2.1833   -0.6753 N   0  0  0  0  0  0  0  0  0  0  0  0
   -1.6422    1.6145   -0.8944 C   0  0  0  0  0  0  0  0  0  0  0  0
   -3.4264    2.2429    0.7736 C   0  0  0  0  0  0  0  0  0  0  0  0
   -1.9149    4.3311   -1.8635 C   0  0  0  0  0  0  0  0  0  0  0  0
   -4.1448    4.4646   -0.6909 C   0  0  0  0  0  0  0  0  0  0  0  0
   -1.0386    4.3998   -0.9560 O   0  0  0  0  0  0  0  0  0  0  0  0
   -1.8691    4.6812   -3.0735 O   0  0  0  0  0  0  0  0  0  0  0  0
   -3.6786    4.7578    0.7328 C   0  0  0  0  0  0  0  0  0  0  0  0
   -3.0292    3.5569    1.4160 C   0  0  0  0  0  0  0  0  0  0  0  0
   -1.5369    0.1389   -0.6638 C   0  0  0  0  0  0  0  0  0  0  0  0
   -2.5240   -0.8310   -0.6972 C   0  0  0  0  0  0  0  0  0  0  0  0
   -0.3450   -0.5847   -0.3628 C   0  0  0  0  0  0  0  0  0  0  0  0
   -1.9291   -2.0353   -0.3875 N   0  0  0  0  0  0  0  0  0  0  0  0
   -0.6079   -1.8830   -0.1712 N   0  0  0  0  0  0  0  0  0  0  0  0
    1.0208   -0.0759   -0.2392 C   0  0  0  0  0  0  0  0  0  0  0  0
   -2.5447   -3.3128   -0.2528 C   0  0  0  0  0  0  0  0  0  0  0  0
    1.5517    0.8021   -1.1890 C   0  0  0  0  0  0  0  0  0  0  0  0
    1.8237   -0.4717    0.8392 C   0  0  0  0  0  0  0  0  0  0  0  0
   -1.7532   -4.4298    0.0635 C   0  0  0  0  0  0  0  0  0  0  0  0
   -3.9256   -3.4766   -0.4297 C   0  0  0  0  0  0  0  0  0  0  0  0
    2.8505    1.2923   -1.0472 C   0  0  0  0  0  0  0  0  0  0  0  0
    3.1276    0.0177    0.9879 C   0  0  0  0  0  0  0  0  0  0  0  0
   -2.3356   -5.6924    0.2242 C   0  0  0  0  0  0  0  0  0  0  0  0
   -4.5000   -4.7469   -0.2551 C   0  0  0  0  0  0  0  0  0  0  0  0
    3.6353    0.9035    0.0396 C   0  0  0  0  0  0  0  0  0  0  0  0
    3.7966   -0.4633    2.0808 O   0  0  0  0  0  0  0  0  0  0  0  0
   -3.7109   -5.8562    0.0721 C   0  0  0  0  0  0  0  0  0  0  0  0
   -5.9526   -4.9072   -0.4028 N   0  0  0  0  0  0  0  0  0  0  0  0
    5.0733    0.0937    2.4026 C   0  0  0  0  0  0  0  0  0  0  0  0
   -6.4282   -6.0456   -0.2708 O   0  0  0  0  0  0  0  0  0  0  0  0
   -6.6191   -3.8862   -0.6295 O   0  0  0  0  0  0  0  0  0  0  0  0
    6.2156   -0.4983    1.6063 C   0  0  0  0  0  0  0  0  0  0  0  0
    7.3801    0.2559    1.3955 C   0  0  0  0  0  0  0  0  0  0  0  0
    6.1586   -1.8081    1.0986 C   0  0  0  0  0  0  0  0  0  0  0  0
    8.4540   -0.2765    0.6759 C   0  0  0  0  0  0  0  0  0  0  0  0
    7.2325   -2.3357    0.3844 C   0  0  0  0  0  0  0  0  0  0  0  0
    8.3805   -1.5736    0.1730 C   0  0  0  0  0  0  0  0  0  0  0  0
    7.1444   -3.9398   -0.2364 Cl  0  0  0  0  0  0  0  0  0  0  0  0
   -3.6982    3.2316   -2.3920 H   0  0  0  0  0  0  0  0  0  0  0  0
   -3.6735    1.5382   -1.1496 H   0  0  0  0  0  0  0  0  0  0  0  0
   -0.9617    2.1447   -0.2222 H   0  0  0  0  0  0  0  0  0  0  0  0
   -1.3755    1.8033   -1.9411 H   0  0  0  0  0  0  0  0  0  0  0  0
   -4.5152    2.1079    0.8049 H   0  0  0  0  0  0  0  0  0  0  0  0
   -2.9759    1.3919    1.2956 H   0  0  0  0  0  0  0  0  0  0  0  0
   -5.1384    3.9987   -0.6483 H   0  0  0  0  0  0  0  0  0  0  0  0
   -4.2815    5.4128   -1.2269 H   0  0  0  0  0  0  0  0  0  0  0  0
   -4.5396    5.0923    1.3231 H   0  0  0  0  0  0  0  0  0  0  0  0
   -2.9719    5.5973    0.7368 H   0  0  0  0  0  0  0  0  0  0  0  0
   -1.9385    3.6647    1.4084 H   0  0  0  0  0  0  0  0  0  0  0  0
   -3.3193    3.5485    2.4743 H   0  0  0  0  0  0  0  0  0  0  0  0
   -3.5773   -0.7629   -0.9111 H   0  0  0  0  0  0  0  0  0  0  0  0
    0.9825    1.1123   -2.0601 H   0  0  0  0  0  0  0  0  0  0  0  0
    1.4345   -1.1700    1.5775 H   0  0  0  0  0  0  0  0  0  0  0  0
   -0.6735   -4.3352    0.1906 H   0  0  0  0  0  0  0  0  0  0  0  0
   -4.5651   -2.6392   -0.6945 H   0  0  0  0  0  0  0  0  0  0  0  0
    3.2536    1.9758   -1.7913 H   0  0  0  0  0  0  0  0  0  0  0  0
   -1.7082   -6.5465    0.4672 H   0  0  0  0  0  0  0  0  0  0  0  0
    4.6469    1.2986    0.0966 H   0  0  0  0  0  0  0  0  0  0  0  0
   -4.1481   -6.8441    0.2104 H   0  0  0  0  0  0  0  0  0  0  0  0
    5.0478    1.1880    2.3314 H   0  0  0  0  0  0  0  0  0  0  0  0
    5.2580   -0.1401    3.4581 H   0  0  0  0  0  0  0  0  0  0  0  0
    7.4575    1.2691    1.7860 H   0  0  0  0  0  0  0  0  0  0  0  0
    5.2722   -2.4157    1.2648 H   0  0  0  0  0  0  0  0  0  0  0  0
    9.3474    0.3193    0.5086 H   0  0  0  0  0  0  0  0  0  0  0  0
    9.2160   -1.9861   -0.3871 H   0  0  0  0  0  0  0  0  0  0  0  0
  1  2  1  0
  2  3  1  0
  2  4  1  0
  1  5  1  0
  6  1  1  0
  5  7  2  0
  5  8  1  0
  9  6  1  0
 10  9  1  0
  4 10  1  0
  3 11  1  0
 11 12  2  0
 13 11  1  0
 12 14  1  0
 15 13  2  0
 13 16  1  0
 14 17  1  0
 14 15  1  0
 16 18  2  0
 19 16  1  0
 17 20  2  0
 21 17  1  0
 18 22  1  0
 23 19  2  0
 20 24  1  0
 25 21  2  0
 22 26  2  0
 26 23  1  0
 23 27  1  0
 24 28  2  0
 28 25  1  0
 25 29  1  0
 27 30  1  0
 29 31  1  0
 29 32  2  0
 30 33  1  0
 33 34  2  0
 35 33  1  0
 34 36  1  0
 37 35  2  0
 36 38  2  0
 38 37  1  0
 37 39  1  0
  1 40  1  0
  2 41  1  0
  3 42  1  0
  3 43  1  0
  4 44  1  0
  4 45  1  0
  6 46  1  0
  6 47  1  0
  9 48  1  0
  9 49  1  0
 10 50  1  0
 10 51  1  0
 12 52  1  0
 18 53  1  0
 19 54  1  0
 20 55  1  0
 21 56  1  0
 22 57  1  0
 24 58  1  0
 26 59  1  0
 28 60  1  0
 30 61  1  0
 30 62  1  0
 34 63  1  0
 35 64  1  0
 36 65  1  0
 38 66  1  0
M  CHG  4   2   1   8  -1  29   1  31  -1
M  END
>  <SMILES_raw>  (158) 
O=C(C1N(CC2=CN(C3=CC=CC([N+]([O-])=O)=C3)N=C2C4=CC=CC(OCC5=CC=CC(Cl)=C5)=C4)CCCC1)O

>  <Protonation_Method>  (158) 
MolScrub

>  <Target_pH>  (158) 
7.4

$$$$
N-((3-(3-((3-chlorobenzyl)oxy)phenyl)-1-(3-nitrophenyl)-1H-pyrazol-4-yl)methyl)-L-threonin
     RDKit          3D

 63 66  0  0  0  0  0  0  0  0999 V2000
   -1.5465   -2.8218    1.0234 C   0  0  2  0  0  0  0  0  0  0  0  0
   -0.4667   -1.8259    1.4866 N   0  0  0  0  0  0  0  0  0  0  0  0
   -0.9407   -0.6330    2.2025 C   0  0  0  0  0  0  0  0  0  0  0  0
   -1.9441   -3.7682    2.1822 C   0  0  0  0  0  0  0  0  0  0  0  0
   -0.8933   -3.6837   -0.0711 C   0  0  1  0  0  0  0  0  0  0  0  0
   -3.0177   -4.4005    2.0561 O   0  0  0  0  0  0  0  0  0  0  0  0
   -1.0865   -3.7037    3.1248 O   0  0  0  0  0  0  0  0  0  0  0  0
   -1.9118   -4.2381   -1.0625 C   0  0  0  0  0  0  0  0  0  0  0  0
    0.0558   -2.8508   -0.7846 O   0  0  0  0  0  0  0  0  0  0  0  0
   -1.5820    0.3880    1.3344 C   0  0  0  0  0  0  0  0  0  0  0  0
   -2.9209    0.4885    1.0042 C   0  0  0  0  0  0  0  0  0  0  0  0
   -0.9847    1.5169    0.7049 C   0  0  0  0  0  0  0  0  0  0  0  0
   -3.0762    1.6160    0.2315 N   0  0  0  0  0  0  0  0  0  0  0  0
   -1.8981    2.2600    0.0716 N   0  0  0  0  0  0  0  0  0  0  0  0
    0.4160    1.9201    0.7169 C   0  0  0  0  0  0  0  0  0  0  0  0
   -4.2692    2.1267   -0.3542 C   0  0  0  0  0  0  0  0  0  0  0  0
    0.7838    3.1728    1.2173 C   0  0  0  0  0  0  0  0  0  0  0  0
    1.4064    1.0583    0.2337 C   0  0  0  0  0  0  0  0  0  0  0  0
   -5.4910    1.4490   -0.2215 C   0  0  0  0  0  0  0  0  0  0  0  0
   -4.2190    3.3294   -1.0793 C   0  0  0  0  0  0  0  0  0  0  0  0
    2.1296    3.5386    1.2646 C   0  0  0  0  0  0  0  0  0  0  0  0
    2.7562    1.4161    0.2877 C   0  0  0  0  0  0  0  0  0  0  0  0
   -6.6519    1.9667   -0.8056 C   0  0  0  0  0  0  0  0  0  0  0  0
   -5.3895    3.8415   -1.6558 C   0  0  0  0  0  0  0  0  0  0  0  0
    3.1161    2.6596    0.8061 C   0  0  0  0  0  0  0  0  0  0  0  0
    3.6075    0.4613   -0.1938 O   0  0  0  0  0  0  0  0  0  0  0  0
   -6.6067    3.1623   -1.5223 C   0  0  0  0  0  0  0  0  0  0  0  0
   -5.3447    5.1088   -2.3992 N   0  0  0  0  0  0  0  0  0  0  0  0
    5.0046    0.7383   -0.1306 C   0  0  0  0  0  0  0  0  0  0  0  0
   -6.4070    5.5327   -2.8762 O   0  0  0  0  0  0  0  0  0  0  0  0
   -4.2516    5.6821   -2.5033 O   0  0  0  0  0  0  0  0  0  0  0  0
    5.7291   -0.4663   -0.6781 C   0  0  0  0  0  0  0  0  0  0  0  0
    6.0673   -0.5406   -2.0372 C   0  0  0  0  0  0  0  0  0  0  0  0
    6.0318   -1.5515    0.1575 C   0  0  0  0  0  0  0  0  0  0  0  0
    6.7157   -1.6677   -2.5473 C   0  0  0  0  0  0  0  0  0  0  0  0
    6.6773   -2.6757   -0.3582 C   0  0  0  0  0  0  0  0  0  0  0  0
    7.0236   -2.7366   -1.7063 C   0  0  0  0  0  0  0  0  0  0  0  0
    7.0448   -4.0001    0.6787 Cl  0  0  0  0  0  0  0  0  0  0  0  0
   -2.3903   -2.2424    0.6373 H   0  0  0  0  0  0  0  0  0  0  0  0
    0.0266   -2.4131    2.1916 H   0  0  0  0  0  0  0  0  0  0  0  0
    0.1654   -1.6711    0.6904 H   0  0  0  0  0  0  0  0  0  0  0  0
   -1.6343   -0.9657    2.9844 H   0  0  0  0  0  0  0  0  0  0  0  0
   -0.0661   -0.2121    2.7112 H   0  0  0  0  0  0  0  0  0  0  0  0
   -0.3222   -4.5113    0.3653 H   0  0  0  0  0  0  0  0  0  0  0  0
   -2.4539   -3.4282   -1.5626 H   0  0  0  0  0  0  0  0  0  0  0  0
   -2.6369   -4.8962   -0.5723 H   0  0  0  0  0  0  0  0  0  0  0  0
   -1.4070   -4.8087   -1.8515 H   0  0  0  0  0  0  0  0  0  0  0  0
    0.4009   -3.3901   -1.5235 H   0  0  0  0  0  0  0  0  0  0  0  0
   -3.7562   -0.1413    1.2737 H   0  0  0  0  0  0  0  0  0  0  0  0
    0.0236    3.8699    1.5658 H   0  0  0  0  0  0  0  0  0  0  0  0
    1.1399    0.1081   -0.2193 H   0  0  0  0  0  0  0  0  0  0  0  0
   -5.5793    0.5137    0.3249 H   0  0  0  0  0  0  0  0  0  0  0  0
   -3.2772    3.8684   -1.1875 H   0  0  0  0  0  0  0  0  0  0  0  0
    2.4118    4.5138    1.6563 H   0  0  0  0  0  0  0  0  0  0  0  0
   -7.5966    1.4368   -0.6993 H   0  0  0  0  0  0  0  0  0  0  0  0
    4.1503    2.9853    0.8575 H   0  0  0  0  0  0  0  0  0  0  0  0
   -7.5233    3.5482   -1.9662 H   0  0  0  0  0  0  0  0  0  0  0  0
    5.3227    0.9110    0.9056 H   0  0  0  0  0  0  0  0  0  0  0  0
    5.2510    1.6234   -0.7300 H   0  0  0  0  0  0  0  0  0  0  0  0
    5.8207    0.2804   -2.7079 H   0  0  0  0  0  0  0  0  0  0  0  0
    5.7593   -1.5209    1.2099 H   0  0  0  0  0  0  0  0  0  0  0  0
    6.9780   -1.7155   -3.6012 H   0  0  0  0  0  0  0  0  0  0  0  0
    7.5273   -3.6119   -2.1075 H   0  0  0  0  0  0  0  0  0  0  0  0
  1  2  1  0
  2  3  1  0
  1  4  1  0
  5  1  1  0
  4  6  2  0
  4  7  1  0
  8  5  1  0
  5  9  1  0
  3 10  1  0
 10 11  2  0
 12 10  1  0
 11 13  1  0
 14 12  2  0
 12 15  1  0
 13 16  1  0
 13 14  1  0
 15 17  2  0
 18 15  1  0
 16 19  2  0
 20 16  1  0
 17 21  1  0
 22 18  2  0
 19 23  1  0
 24 20  2  0
 21 25  2  0
 25 22  1  0
 22 26  1  0
 23 27  2  0
 27 24  1  0
 24 28  1  0
 26 29  1  0
 28 30  1  0
 28 31  2  0
 29 32  1  0
 32 33  2  0
 34 32  1  0
 33 35  1  0
 36 34  2  0
 35 37  2  0
 37 36  1  0
 36 38  1  0
  1 39  1  6
  2 40  1  0
  2 41  1  0
  3 42  1  0
  3 43  1  0
  5 44  1  1
  8 45  1  0
  8 46  1  0
  8 47  1  0
  9 48  1  0
 11 49  1  0
 17 50  1  0
 18 51  1  0
 19 52  1  0
 20 53  1  0
 21 54  1  0
 23 55  1  0
 25 56  1  0
 27 57  1  0
 29 58  1  0
 29 59  1  0
 33 60  1  0
 34 61  1  0
 35 62  1  0
 37 63  1  0
M  CHG  4   2   1   7  -1  28   1  30  -1
M  END
>  <SMILES_raw>  (159) 
C[C@@H](O)[C@@H](C(O)=O)NCC1=CN(C2=CC=CC([N+]([O-])=O)=C2)N=C1C3=CC=CC(OCC4=CC=CC(Cl)=C4)=C3

>  <Protonation_Method>  (159) 
MolScrub

>  <Target_pH>  (159) 
7.4

$$$$
N-((3-(3-((3-chlorobenzyl)oxy)phenyl)-1-(3-nitrophenyl)-1H-pyrazol-4-yl)methyl)-L-valin
     RDKit          3D

 65 68  0  0  0  0  0  0  0  0999 V2000
    2.0985   -2.7062   -0.2719 C   0  0  2  0  0  0  0  0  0  0  0  0
    1.6055   -1.2612   -0.4915 N   0  0  0  0  0  0  0  0  0  0  0  0
    1.1627   -0.5773    0.7436 C   0  0  0  0  0  0  0  0  0  0  0  0
    3.6121   -2.6323    0.1339 C   0  0  0  0  0  0  0  0  0  0  0  0
    1.8248   -3.5147   -1.5533 C   0  0  0  0  0  0  0  0  0  0  0  0
    4.0654   -1.4633   -0.1133 O   0  0  0  0  0  0  0  0  0  0  0  0
    4.1219   -3.6370    0.6761 O   0  0  0  0  0  0  0  0  0  0  0  0
    2.0329   -5.0163   -1.3268 C   0  0  0  0  0  0  0  0  0  0  0  0
    2.6552   -3.0528   -2.7584 C   0  0  0  0  0  0  0  0  0  0  0  0
    1.1718    0.8970    0.5648 C   0  0  0  0  0  0  0  0  0  0  0  0
    2.2906    1.7017    0.4554 C   0  0  0  0  0  0  0  0  0  0  0  0
    0.0793    1.7988    0.4452 C   0  0  0  0  0  0  0  0  0  0  0  0
    1.8569    2.9921    0.2674 N   0  0  0  0  0  0  0  0  0  0  0  0
    0.5059    3.0458    0.2139 N   0  0  0  0  0  0  0  0  0  0  0  0
   -1.3486    1.5003    0.4975 C   0  0  0  0  0  0  0  0  0  0  0  0
    2.6385    4.1719    0.1208 C   0  0  0  0  0  0  0  0  0  0  0  0
   -2.1938    1.9207   -0.5333 C   0  0  0  0  0  0  0  0  0  0  0  0
   -1.8865    0.7748    1.5666 C   0  0  0  0  0  0  0  0  0  0  0  0
    4.0381    4.1313    0.2078 C   0  0  0  0  0  0  0  0  0  0  0  0
    1.9942    5.4005   -0.1032 C   0  0  0  0  0  0  0  0  0  0  0  0
   -3.5475    1.5855   -0.5108 C   0  0  0  0  0  0  0  0  0  0  0  0
   -3.2370    0.4131    1.5797 C   0  0  0  0  0  0  0  0  0  0  0  0
    4.7867    5.3046    0.0718 C   0  0  0  0  0  0  0  0  0  0  0  0
    2.7567    6.5651   -0.2547 C   0  0  0  0  0  0  0  0  0  0  0  0
   -4.0692    0.8235    0.5389 C   0  0  0  0  0  0  0  0  0  0  0  0
   -3.6050   -0.3400    2.6619 O   0  0  0  0  0  0  0  0  0  0  0  0
    4.1520    6.5213   -0.1687 C   0  0  0  0  0  0  0  0  0  0  0  0
    2.0832    7.8536   -0.4684 N   0  0  0  0  0  0  0  0  0  0  0  0
   -4.7995   -1.1287    2.5615 C   0  0  0  0  0  0  0  0  0  0  0  0
    2.7819    8.8808   -0.4509 O   0  0  0  0  0  0  0  0  0  0  0  0
    0.8618    7.8383   -0.6592 O   0  0  0  0  0  0  0  0  0  0  0  0
   -4.6687   -2.3039    1.6104 C   0  0  0  0  0  0  0  0  0  0  0  0
   -5.7991   -2.7936    0.9395 C   0  0  0  0  0  0  0  0  0  0  0  0
   -3.4384   -2.9504    1.4170 C   0  0  0  0  0  0  0  0  0  0  0  0
   -5.6980   -3.8881    0.0773 C   0  0  0  0  0  0  0  0  0  0  0  0
   -3.3386   -4.0258    0.5358 C   0  0  0  0  0  0  0  0  0  0  0  0
   -4.4666   -4.4996   -0.1314 C   0  0  0  0  0  0  0  0  0  0  0  0
   -1.8095   -4.7545    0.2599 Cl  0  0  0  0  0  0  0  0  0  0  0  0
    1.5102   -3.1092    0.5615 H   0  0  0  0  0  0  0  0  0  0  0  0
    0.9774   -1.1300   -1.2861 H   0  0  0  0  0  0  0  0  0  0  0  0
    2.5257   -0.8150   -0.7285 H   0  0  0  0  0  0  0  0  0  0  0  0
    1.8443   -0.8559    1.5559 H   0  0  0  0  0  0  0  0  0  0  0  0
    0.1710   -0.9756    0.9720 H   0  0  0  0  0  0  0  0  0  0  0  0
    0.7657   -3.3811   -1.8175 H   0  0  0  0  0  0  0  0  0  0  0  0
    1.4325   -5.3734   -0.4849 H   0  0  0  0  0  0  0  0  0  0  0  0
    3.0799   -5.2612   -1.1255 H   0  0  0  0  0  0  0  0  0  0  0  0
    1.7293   -5.5809   -2.2126 H   0  0  0  0  0  0  0  0  0  0  0  0
    2.3920   -3.6306   -3.6517 H   0  0  0  0  0  0  0  0  0  0  0  0
    2.4752   -1.9958   -2.9889 H   0  0  0  0  0  0  0  0  0  0  0  0
    3.7274   -3.1855   -2.5836 H   0  0  0  0  0  0  0  0  0  0  0  0
    3.3412    1.4415    0.4949 H   0  0  0  0  0  0  0  0  0  0  0  0
   -1.8026    2.5165   -1.3559 H   0  0  0  0  0  0  0  0  0  0  0  0
   -1.2586    0.4781    2.4034 H   0  0  0  0  0  0  0  0  0  0  0  0
    4.5781    3.2104    0.4027 H   0  0  0  0  0  0  0  0  0  0  0  0
    0.9054    5.4503   -0.1479 H   0  0  0  0  0  0  0  0  0  0  0  0
   -4.1957    1.9264   -1.3138 H   0  0  0  0  0  0  0  0  0  0  0  0
    5.8704    5.2610    0.1549 H   0  0  0  0  0  0  0  0  0  0  0  0
   -5.1280    0.5847    0.5170 H   0  0  0  0  0  0  0  0  0  0  0  0
    4.7499    7.4255   -0.2760 H   0  0  0  0  0  0  0  0  0  0  0  0
   -5.6611   -0.4918    2.3256 H   0  0  0  0  0  0  0  0  0  0  0  0
   -4.9917   -1.5383    3.5614 H   0  0  0  0  0  0  0  0  0  0  0  0
   -6.7727   -2.3310    1.0820 H   0  0  0  0  0  0  0  0  0  0  0  0
   -2.5548   -2.6076    1.9507 H   0  0  0  0  0  0  0  0  0  0  0  0
   -6.5849   -4.2607   -0.4326 H   0  0  0  0  0  0  0  0  0  0  0  0
   -4.3962   -5.3456   -0.8084 H   0  0  0  0  0  0  0  0  0  0  0  0
  1  2  1  0
  2  3  1  0
  1  4  1  0
  5  1  1  0
  4  6  2  0
  4  7  1  0
  8  5  1  0
  5  9  1  0
  3 10  1  0
 10 11  2  0
 12 10  1  0
 11 13  1  0
 14 12  2  0
 12 15  1  0
 13 16  1  0
 13 14  1  0
 15 17  2  0
 18 15  1  0
 16 19  2  0
 20 16  1  0
 17 21  1  0
 22 18  2  0
 19 23  1  0
 24 20  2  0
 21 25  2  0
 25 22  1  0
 22 26  1  0
 23 27  2  0
 27 24  1  0
 24 28  1  0
 26 29  1  0
 28 30  1  0
 28 31  2  0
 29 32  1  0
 32 33  2  0
 34 32  1  0
 33 35  1  0
 36 34  2  0
 35 37  2  0
 37 36  1  0
 36 38  1  0
  1 39  1  1
  2 40  1  0
  2 41  1  0
  3 42  1  0
  3 43  1  0
  5 44  1  0
  8 45  1  0
  8 46  1  0
  8 47  1  0
  9 48  1  0
  9 49  1  0
  9 50  1  0
 11 51  1  0
 17 52  1  0
 18 53  1  0
 19 54  1  0
 20 55  1  0
 21 56  1  0
 23 57  1  0
 25 58  1  0
 27 59  1  0
 29 60  1  0
 29 61  1  0
 33 62  1  0
 34 63  1  0
 35 64  1  0
 37 65  1  0
M  CHG  4   2   1   7  -1  28   1  30  -1
M  END
>  <SMILES_raw>  (160) 
CC(C)[C@@H](C(O)=O)NCC1=CN(C2=CC=CC([N+]([O-])=O)=C2)N=C1C3=CC=CC(OCC4=CC=CC(Cl)=C4)=C3

>  <Protonation_Method>  (160) 
MolScrub

>  <Target_pH>  (160) 
7.4

$$$$
1-((3-(3-((4-chlorobenzyl)oxy)phenyl)-1-(3-nitrophenyl)-1H-pyrazol-4-yl)methyl)piperidin-2-carboxylic acid 
     RDKit          3D

 66 70  0  0  0  0  0  0  0  0999 V2000
   -3.3474    3.2480   -1.7179 C   0  0  0  0  0  0  0  0  0  0  0  0
   -3.0895    2.0348   -0.7463 N   0  0  0  0  0  0  0  0  0  0  0  0
   -1.6929    1.4698   -0.9487 C   0  0  0  0  0  0  0  0  0  0  0  0
   -3.3995    2.3130    0.6977 C   0  0  0  0  0  0  0  0  0  0  0  0
   -2.1464    4.1278   -2.2156 C   0  0  0  0  0  0  0  0  0  0  0  0
   -4.3885    4.1694   -1.0876 C   0  0  0  0  0  0  0  0  0  0  0  0
   -1.1142    4.0632   -1.4911 O   0  0  0  0  0  0  0  0  0  0  0  0
   -2.3438    4.7246   -3.3063 O   0  0  0  0  0  0  0  0  0  0  0  0
   -3.9248    4.7439    0.2484 C   0  0  0  0  0  0  0  0  0  0  0  0
   -3.1065    3.7513    1.0738 C   0  0  0  0  0  0  0  0  0  0  0  0
   -1.5590    0.0191   -0.6071 C   0  0  0  0  0  0  0  0  0  0  0  0
   -2.5311   -0.9595   -0.5159 C   0  0  0  0  0  0  0  0  0  0  0  0
   -0.3414   -0.6661   -0.3068 C   0  0  0  0  0  0  0  0  0  0  0  0
   -1.9020   -2.1359   -0.1683 N   0  0  0  0  0  0  0  0  0  0  0  0
   -0.5752   -1.9508   -0.0154 N   0  0  0  0  0  0  0  0  0  0  0  0
    1.0183   -0.1268   -0.2597 C   0  0  0  0  0  0  0  0  0  0  0  0
   -2.4883   -3.4192    0.0334 C   0  0  0  0  0  0  0  0  0  0  0  0
    1.5010    0.7140   -1.2681 C   0  0  0  0  0  0  0  0  0  0  0  0
    1.8602   -0.4456    0.8153 C   0  0  0  0  0  0  0  0  0  0  0  0
   -1.6625   -4.5216    0.3076 C   0  0  0  0  0  0  0  0  0  0  0  0
   -3.8753   -3.6021   -0.0437 C   0  0  0  0  0  0  0  0  0  0  0  0
    2.7903    1.2426   -1.1846 C   0  0  0  0  0  0  0  0  0  0  0  0
    3.1512    0.0870    0.9075 C   0  0  0  0  0  0  0  0  0  0  0  0
   -2.2121   -5.7938    0.5012 C   0  0  0  0  0  0  0  0  0  0  0  0
   -4.4178   -4.8833    0.1596 C   0  0  0  0  0  0  0  0  0  0  0  0
    3.6128    0.9309   -0.1004 C   0  0  0  0  0  0  0  0  0  0  0  0
    3.8519   -0.3050    2.0135 O   0  0  0  0  0  0  0  0  0  0  0  0
   -3.5928   -5.9802    0.4275 C   0  0  0  0  0  0  0  0  0  0  0  0
   -5.8758   -5.0649    0.0924 N   0  0  0  0  0  0  0  0  0  0  0  0
    5.0735    0.3708    2.3201 C   0  0  0  0  0  0  0  0  0  0  0  0
   -6.3348   -6.2005    0.2920 O   0  0  0  0  0  0  0  0  0  0  0  0
   -6.5646   -4.0605   -0.1399 O   0  0  0  0  0  0  0  0  0  0  0  0
    6.2799   -0.2191    1.6208 C   0  0  0  0  0  0  0  0  0  0  0  0
    6.3445   -1.5856    1.3100 C   0  0  0  0  0  0  0  0  0  0  0  0
    7.3819    0.5985    1.3195 C   0  0  0  0  0  0  0  0  0  0  0  0
    7.4777   -2.1214    0.6947 C   0  0  0  0  0  0  0  0  0  0  0  0
    8.5149    0.0616    0.7047 C   0  0  0  0  0  0  0  0  0  0  0  0
    8.5594   -1.2975    0.3979 C   0  0  0  0  0  0  0  0  0  0  0  0
    9.9572   -1.9585   -0.3552 Cl  0  0  0  0  0  0  0  0  0  0  0  0
   -3.7754    2.7720   -2.6102 H   0  0  0  0  0  0  0  0  0  0  0  0
   -3.7308    1.3141   -1.0751 H   0  0  0  0  0  0  0  0  0  0  0  0
   -1.0104    2.0539   -0.3240 H   0  0  0  0  0  0  0  0  0  0  0  0
   -1.4483    1.5764   -2.0114 H   0  0  0  0  0  0  0  0  0  0  0  0
   -4.4667    2.0931    0.8280 H   0  0  0  0  0  0  0  0  0  0  0  0
   -2.8394    1.6079    1.3223 H   0  0  0  0  0  0  0  0  0  0  0  0
   -5.3175    3.6048   -0.9333 H   0  0  0  0  0  0  0  0  0  0  0  0
   -4.6485    4.9936   -1.7616 H   0  0  0  0  0  0  0  0  0  0  0  0
   -4.8070    5.0637    0.8169 H   0  0  0  0  0  0  0  0  0  0  0  0
   -3.3283    5.6514    0.0891 H   0  0  0  0  0  0  0  0  0  0  0  0
   -2.0362    3.9570    0.9534 H   0  0  0  0  0  0  0  0  0  0  0  0
   -3.3220    3.9044    2.1379 H   0  0  0  0  0  0  0  0  0  0  0  0
   -3.5996   -0.9172   -0.6692 H   0  0  0  0  0  0  0  0  0  0  0  0
    0.9005    0.9658   -2.1382 H   0  0  0  0  0  0  0  0  0  0  0  0
    1.5085   -1.1122    1.6010 H   0  0  0  0  0  0  0  0  0  0  0  0
   -0.5784   -4.4071    0.3809 H   0  0  0  0  0  0  0  0  0  0  0  0
   -4.5456   -2.7721   -0.2430 H   0  0  0  0  0  0  0  0  0  0  0  0
    3.1551    1.8991   -1.9722 H   0  0  0  0  0  0  0  0  0  0  0  0
   -1.5577   -6.6381    0.7103 H   0  0  0  0  0  0  0  0  0  0  0  0
    4.6134    1.3512   -0.0858 H   0  0  0  0  0  0  0  0  0  0  0  0
   -4.0062   -6.9765    0.5842 H   0  0  0  0  0  0  0  0  0  0  0  0
    4.9834    1.4506    2.1493 H   0  0  0  0  0  0  0  0  0  0  0  0
    5.2330    0.2477    3.3981 H   0  0  0  0  0  0  0  0  0  0  0  0
    5.5062   -2.2406    1.5386 H   0  0  0  0  0  0  0  0  0  0  0  0
    7.3632    1.6616    1.5564 H   0  0  0  0  0  0  0  0  0  0  0  0
    7.5079   -3.1816    0.4573 H   0  0  0  0  0  0  0  0  0  0  0  0
    9.3584    0.7048    0.4703 H   0  0  0  0  0  0  0  0  0  0  0  0
  1  2  1  0
  2  3  1  0
  2  4  1  0
  1  5  1  0
  6  1  1  0
  5  7  2  0
  5  8  1  0
  9  6  1  0
 10  9  1  0
  4 10  1  0
  3 11  1  0
 11 12  2  0
 13 11  1  0
 12 14  1  0
 15 13  2  0
 13 16  1  0
 14 17  1  0
 14 15  1  0
 16 18  2  0
 19 16  1  0
 17 20  2  0
 21 17  1  0
 18 22  1  0
 23 19  2  0
 20 24  1  0
 25 21  2  0
 22 26  2  0
 26 23  1  0
 23 27  1  0
 24 28  2  0
 28 25  1  0
 25 29  1  0
 27 30  1  0
 29 31  1  0
 29 32  2  0
 30 33  1  0
 33 34  2  0
 35 33  1  0
 34 36  1  0
 37 35  2  0
 36 38  2  0
 38 37  1  0
 38 39  1  0
  1 40  1  0
  2 41  1  0
  3 42  1  0
  3 43  1  0
  4 44  1  0
  4 45  1  0
  6 46  1  0
  6 47  1  0
  9 48  1  0
  9 49  1  0
 10 50  1  0
 10 51  1  0
 12 52  1  0
 18 53  1  0
 19 54  1  0
 20 55  1  0
 21 56  1  0
 22 57  1  0
 24 58  1  0
 26 59  1  0
 28 60  1  0
 30 61  1  0
 30 62  1  0
 34 63  1  0
 35 64  1  0
 36 65  1  0
 37 66  1  0
M  CHG  4   2   1   8  -1  29   1  31  -1
M  END
>  <SMILES_raw>  (161) 
O=C(C1N(CC2=CN(C3=CC=CC([N+]([O-])=O)=C3)N=C2C4=CC=CC(OCC5=CC=C(Cl)C=C5)=C4)CCCC1)O

>  <Protonation_Method>  (161) 
MolScrub

>  <Target_pH>  (161) 
7.4

$$$$
N-((3-(4-(benzyloxy)phenyl)-1-(4-chlorophenyl)-1H-pyrazol-4-yl)methyl)-L-aspartic acid 
     RDKit          3D

 59 62  0  0  0  0  0  0  0  0999 V2000
   -3.1263    3.1688   -0.1823 C   0  0  2  0  0  0  0  0  0  0  0  0
   -2.5641    2.7230    1.1660 N   0  0  0  0  0  0  0  0  0  0  0  0
   -1.3966    1.8569    1.2138 C   0  0  0  0  0  0  0  0  0  0  0  0
   -3.2068    4.7334   -0.1982 C   0  0  0  0  0  0  0  0  0  0  0  0
   -4.4030    2.4209   -0.5475 C   0  0  0  0  0  0  0  0  0  0  0  0
   -3.7008    5.2928   -1.2054 O   0  0  0  0  0  0  0  0  0  0  0  0
   -2.6290    5.2154    0.8370 O   0  0  0  0  0  0  0  0  0  0  0  0
   -5.3611    2.0727    0.5821 C   0  0  0  0  0  0  0  0  0  0  0  0
   -4.8530    2.1202    1.7461 O   0  0  0  0  0  0  0  0  0  0  0  0
   -6.4990    1.6682    0.2350 O   0  0  0  0  0  0  0  0  0  0  0  0
   -1.6324    0.4643    0.7509 C   0  0  0  0  0  0  0  0  0  0  0  0
   -2.7310   -0.3296    1.0174 C   0  0  0  0  0  0  0  0  0  0  0  0
   -0.7740   -0.3825   -0.0074 C   0  0  0  0  0  0  0  0  0  0  0  0
   -2.5398   -1.5351    0.3928 N   0  0  0  0  0  0  0  0  0  0  0  0
   -1.2992   -1.6077   -0.1503 N   0  0  0  0  0  0  0  0  0  0  0  0
    0.5425   -0.0817   -0.5625 C   0  0  0  0  0  0  0  0  0  0  0  0
   -3.4483   -2.6263    0.3054 C   0  0  0  0  0  0  0  0  0  0  0  0
    1.6271   -0.9254   -0.2894 C   0  0  0  0  0  0  0  0  0  0  0  0
    0.7419    1.0358   -1.3778 C   0  0  0  0  0  0  0  0  0  0  0  0
   -4.7753   -2.4997    0.7446 C   0  0  0  0  0  0  0  0  0  0  0  0
   -3.0140   -3.8456   -0.2415 C   0  0  0  0  0  0  0  0  0  0  0  0
    2.8984   -0.6448   -0.8033 C   0  0  0  0  0  0  0  0  0  0  0  0
    2.0138    1.3182   -1.8844 C   0  0  0  0  0  0  0  0  0  0  0  0
   -5.6510   -3.5869    0.6465 C   0  0  0  0  0  0  0  0  0  0  0  0
   -3.8916   -4.9302   -0.3275 C   0  0  0  0  0  0  0  0  0  0  0  0
    3.0938    0.4768   -1.6080 C   0  0  0  0  0  0  0  0  0  0  0  0
   -5.2064   -4.7965    0.1164 C   0  0  0  0  0  0  0  0  0  0  0  0
    4.2846    0.8740   -2.1503 O   0  0  0  0  0  0  0  0  0  0  0  0
   -6.2842   -6.1343    0.0090 Cl  0  0  0  0  0  0  0  0  0  0  0  0
    5.2995   -0.1209   -2.3227 C   0  0  0  0  0  0  0  0  0  0  0  0
    6.2429   -0.2276   -1.1444 C   0  0  0  0  0  0  0  0  0  0  0  0
    6.9023   -1.4390   -0.8902 C   0  0  0  0  0  0  0  0  0  0  0  0
    6.5215    0.8777   -0.3259 C   0  0  0  0  0  0  0  0  0  0  0  0
    7.7993   -1.5492    0.1736 C   0  0  0  0  0  0  0  0  0  0  0  0
    7.4187    0.7663    0.7374 C   0  0  0  0  0  0  0  0  0  0  0  0
    8.0549   -0.4481    0.9881 C   0  0  0  0  0  0  0  0  0  0  0  0
   -2.3541    2.9304   -0.9254 H   0  0  0  0  0  0  0  0  0  0  0  0
   -3.3851    2.3895    1.7310 H   0  0  0  0  0  0  0  0  0  0  0  0
   -2.3695    3.6574    1.5918 H   0  0  0  0  0  0  0  0  0  0  0  0
   -0.6080    2.3586    0.6484 H   0  0  0  0  0  0  0  0  0  0  0  0
   -1.0781    1.8324    2.2622 H   0  0  0  0  0  0  0  0  0  0  0  0
   -4.9640    2.9854   -1.3002 H   0  0  0  0  0  0  0  0  0  0  0  0
   -4.1309    1.4678   -1.0194 H   0  0  0  0  0  0  0  0  0  0  0  0
   -3.6286   -0.1160    1.5810 H   0  0  0  0  0  0  0  0  0  0  0  0
    1.4854   -1.8065    0.3335 H   0  0  0  0  0  0  0  0  0  0  0  0
   -0.0856    1.6907   -1.6418 H   0  0  0  0  0  0  0  0  0  0  0  0
   -5.1709   -1.5658    1.1425 H   0  0  0  0  0  0  0  0  0  0  0  0
   -1.9933   -3.9630   -0.6003 H   0  0  0  0  0  0  0  0  0  0  0  0
    3.7130   -1.3099   -0.5385 H   0  0  0  0  0  0  0  0  0  0  0  0
    2.1590    2.1976   -2.5089 H   0  0  0  0  0  0  0  0  0  0  0  0
   -6.6785   -3.4726    0.9818 H   0  0  0  0  0  0  0  0  0  0  0  0
   -3.5450   -5.8717   -0.7440 H   0  0  0  0  0  0  0  0  0  0  0  0
    4.8621   -1.0928   -2.5873 H   0  0  0  0  0  0  0  0  0  0  0  0
    5.8950    0.1935   -3.1902 H   0  0  0  0  0  0  0  0  0  0  0  0
    6.7198   -2.3085   -1.5179 H   0  0  0  0  0  0  0  0  0  0  0  0
    6.0327    1.8319   -0.5097 H   0  0  0  0  0  0  0  0  0  0  0  0
    8.2990   -2.4959    0.3653 H   0  0  0  0  0  0  0  0  0  0  0  0
    7.6190    1.6275    1.3688 H   0  0  0  0  0  0  0  0  0  0  0  0
    8.7522   -0.5342    1.8174 H   0  0  0  0  0  0  0  0  0  0  0  0
  1  2  1  0
  2  3  1  0
  1  4  1  0
  5  1  1  0
  4  6  2  0
  4  7  1  0
  5  8  1  0
  8  9  2  0
  8 10  1  0
  3 11  1  0
 11 12  2  0
 13 11  1  0
 12 14  1  0
 15 13  2  0
 13 16  1  0
 14 17  1  0
 14 15  1  0
 16 18  2  0
 19 16  1  0
 17 20  2  0
 21 17  1  0
 18 22  1  0
 23 19  2  0
 20 24  1  0
 25 21  2  0
 22 26  2  0
 26 23  1  0
 24 27  2  0
 27 25  1  0
 26 28  1  0
 27 29  1  0
 28 30  1  0
 30 31  1  0
 31 32  2  0
 33 31  1  0
 32 34  1  0
 35 33  2  0
 34 36  2  0
 36 35  1  0
  1 37  1  6
  2 38  1  0
  2 39  1  0
  3 40  1  0
  3 41  1  0
  5 42  1  0
  5 43  1  0
 12 44  1  0
 18 45  1  0
 19 46  1  0
 20 47  1  0
 21 48  1  0
 22 49  1  0
 23 50  1  0
 24 51  1  0
 25 52  1  0
 30 53  1  0
 30 54  1  0
 32 55  1  0
 33 56  1  0
 34 57  1  0
 35 58  1  0
 36 59  1  0
M  CHG  3   2   1   7  -1  10  -1
M  END
>  <SMILES_raw>  (162) 
O=C(O)C[C@@H](C(O)=O)NCC1=CN(C2=CC=C(Cl)C=C2)N=C1C3=CC=C(OCC4=CC=CC=C4)C=C3

>  <Protonation_Method>  (162) 
MolScrub

>  <Target_pH>  (162) 
7.4

$$$$
N-((3-(4-(benzyloxy)phenyl)-1-(4-chlorophenyl)-1H-pyrazol-4-yl)methyl)-L-glycin
     RDKit          3D

 54 57  0  0  0  0  0  0  0  0999 V2000
   -2.8432    4.5004    0.2260 C   0  0  0  0  0  0  0  0  0  0  0  0
   -2.6715    3.0069    0.4600 N   0  0  0  0  0  0  0  0  0  0  0  0
   -2.2353    2.2482   -0.7322 C   0  0  0  0  0  0  0  0  0  0  0  0
   -4.2637    4.7797   -0.3314 C   0  0  0  0  0  0  0  0  0  0  0  0
   -4.4625    5.8993   -0.8457 O   0  0  0  0  0  0  0  0  0  0  0  0
   -4.9944    3.7434   -0.1943 O   0  0  0  0  0  0  0  0  0  0  0  0
   -2.5038    0.8001   -0.5547 C   0  0  0  0  0  0  0  0  0  0  0  0
   -3.7460    0.1931   -0.5307 C   0  0  0  0  0  0  0  0  0  0  0  0
   -1.5882   -0.2657   -0.3441 C   0  0  0  0  0  0  0  0  0  0  0  0
   -3.5489   -1.1485   -0.3039 N   0  0  0  0  0  0  0  0  0  0  0  0
   -2.2315   -1.4227   -0.1514 N   0  0  0  0  0  0  0  0  0  0  0  0
   -0.1319   -0.2132   -0.2777 C   0  0  0  0  0  0  0  0  0  0  0  0
   -4.5272   -2.1775   -0.2048 C   0  0  0  0  0  0  0  0  0  0  0  0
    0.5368   -0.7365    0.8360 C   0  0  0  0  0  0  0  0  0  0  0  0
    0.6150    0.3468   -1.3186 C   0  0  0  0  0  0  0  0  0  0  0  0
   -5.8944   -1.8988   -0.3484 C   0  0  0  0  0  0  0  0  0  0  0  0
   -4.1150   -3.4983    0.0399 C   0  0  0  0  0  0  0  0  0  0  0  0
    1.9330   -0.6801    0.9225 C   0  0  0  0  0  0  0  0  0  0  0  0
    2.0085    0.4043   -1.2275 C   0  0  0  0  0  0  0  0  0  0  0  0
   -6.8335   -2.9317   -0.2466 C   0  0  0  0  0  0  0  0  0  0  0  0
   -5.0580   -4.5252    0.1410 C   0  0  0  0  0  0  0  0  0  0  0  0
    2.6742   -0.1059   -0.1097 C   0  0  0  0  0  0  0  0  0  0  0  0
   -6.4128   -4.2378   -0.0032 C   0  0  0  0  0  0  0  0  0  0  0  0
    4.0340    0.0177   -0.1546 O   0  0  0  0  0  0  0  0  0  0  0  0
   -7.5732   -5.5013    0.1211 Cl  0  0  0  0  0  0  0  0  0  0  0  0
    4.7784   -0.5747    0.9075 C   0  0  0  0  0  0  0  0  0  0  0  0
    6.2457   -0.3780    0.6183 C   0  0  0  0  0  0  0  0  0  0  0  0
    6.9457    0.7029    1.1725 C   0  0  0  0  0  0  0  0  0  0  0  0
    6.9224   -1.2572   -0.2395 C   0  0  0  0  0  0  0  0  0  0  0  0
    8.3008    0.8867    0.8919 C   0  0  0  0  0  0  0  0  0  0  0  0
    8.2773   -1.0715   -0.5187 C   0  0  0  0  0  0  0  0  0  0  0  0
    8.9664   -0.0017    0.0492 C   0  0  0  0  0  0  0  0  0  0  0  0
   -2.0468    4.8353   -0.4440 H   0  0  0  0  0  0  0  0  0  0  0  0
   -2.7389    4.9756    1.2056 H   0  0  0  0  0  0  0  0  0  0  0  0
   -2.1713    2.7756    1.3177 H   0  0  0  0  0  0  0  0  0  0  0  0
   -3.6774    2.7473    0.5910 H   0  0  0  0  0  0  0  0  0  0  0  0
   -2.7851    2.6274   -1.6011 H   0  0  0  0  0  0  0  0  0  0  0  0
   -1.1745    2.4706   -0.8703 H   0  0  0  0  0  0  0  0  0  0  0  0
   -4.7328    0.6195   -0.6543 H   0  0  0  0  0  0  0  0  0  0  0  0
   -0.0283   -1.2017    1.6422 H   0  0  0  0  0  0  0  0  0  0  0  0
    0.1327    0.7188   -2.2189 H   0  0  0  0  0  0  0  0  0  0  0  0
   -6.2677   -0.8968   -0.5402 H   0  0  0  0  0  0  0  0  0  0  0  0
   -3.0605   -3.7458    0.1522 H   0  0  0  0  0  0  0  0  0  0  0  0
    2.4041   -1.0991    1.8056 H   0  0  0  0  0  0  0  0  0  0  0  0
    2.5858    0.8364   -2.0425 H   0  0  0  0  0  0  0  0  0  0  0  0
   -7.8921   -2.7093   -0.3599 H   0  0  0  0  0  0  0  0  0  0  0  0
   -4.7271   -5.5431    0.3303 H   0  0  0  0  0  0  0  0  0  0  0  0
    4.5261   -0.0997    1.8638 H   0  0  0  0  0  0  0  0  0  0  0  0
    4.5680   -1.6494    0.9794 H   0  0  0  0  0  0  0  0  0  0  0  0
    6.4382    1.4117    1.8228 H   0  0  0  0  0  0  0  0  0  0  0  0
    6.3934   -2.0890   -0.6997 H   0  0  0  0  0  0  0  0  0  0  0  0
    8.8366    1.7265    1.3267 H   0  0  0  0  0  0  0  0  0  0  0  0
    8.7937   -1.7588   -1.1838 H   0  0  0  0  0  0  0  0  0  0  0  0
   10.0207    0.1440   -0.1710 H   0  0  0  0  0  0  0  0  0  0  0  0
  1  2  1  0
  2  3  1  0
  1  4  1  0
  4  5  2  0
  4  6  1  0
  3  7  1  0
  7  8  2  0
  9  7  1  0
  8 10  1  0
 11  9  2  0
  9 12  1  0
 10 13  1  0
 10 11  1  0
 12 14  2  0
 15 12  1  0
 13 16  2  0
 17 13  1  0
 14 18  1  0
 19 15  2  0
 16 20  1  0
 21 17  2  0
 18 22  2  0
 22 19  1  0
 20 23  2  0
 23 21  1  0
 22 24  1  0
 23 25  1  0
 24 26  1  0
 26 27  1  0
 27 28  2  0
 29 27  1  0
 28 30  1  0
 31 29  2  0
 30 32  2  0
 32 31  1  0
  1 33  1  0
  1 34  1  0
  2 35  1  0
  2 36  1  0
  3 37  1  0
  3 38  1  0
  8 39  1  0
 14 40  1  0
 15 41  1  0
 16 42  1  0
 17 43  1  0
 18 44  1  0
 19 45  1  0
 20 46  1  0
 21 47  1  0
 26 48  1  0
 26 49  1  0
 28 50  1  0
 29 51  1  0
 30 52  1  0
 31 53  1  0
 32 54  1  0
M  CHG  2   2   1   6  -1
M  END
>  <SMILES_raw>  (163) 
O=C(O)CNCC1=CN(C2=CC=C(Cl)C=C2)N=C1C3=CC=C(OCC4=CC=CC=C4)C=C3

>  <Protonation_Method>  (163) 
MolScrub

>  <Target_pH>  (163) 
7.4

$$$$
N-((3-(4-((4-chlorobenzyl)oxy)phenyl)-1-(4-chlorophenyl)-1H-pyrazol-4-yl)methyl)-L-leucin
     RDKit          3D

 66 69  0  0  0  0  0  0  0  0999 V2000
   -3.0342   -2.6647    0.3082 C   0  0  2  0  0  0  0  0  0  0  0  0
   -2.6037   -1.2169    0.6163 N   0  0  0  0  0  0  0  0  0  0  0  0
   -2.0091   -0.4579   -0.5184 C   0  0  0  0  0  0  0  0  0  0  0  0
   -1.7467   -3.5107    0.0411 C   0  0  0  0  0  0  0  0  0  0  0  0
   -4.1730   -2.6488   -0.7175 C   0  0  0  0  0  0  0  0  0  0  0  0
   -1.7937   -4.3838   -0.8487 O   0  0  0  0  0  0  0  0  0  0  0  0
   -0.7873   -3.0597    0.7493 O   0  0  0  0  0  0  0  0  0  0  0  0
   -5.3173   -3.6585   -0.4739 C   0  0  0  0  0  0  0  0  0  0  0  0
   -4.8462   -5.1096   -0.4306 C   0  0  0  0  0  0  0  0  0  0  0  0
   -6.1213   -3.3203    0.7852 C   0  0  0  0  0  0  0  0  0  0  0  0
   -1.7296    0.9404   -0.0976 C   0  0  0  0  0  0  0  0  0  0  0  0
   -2.6738    1.9147    0.1760 C   0  0  0  0  0  0  0  0  0  0  0  0
   -0.4778    1.5971    0.0869 C   0  0  0  0  0  0  0  0  0  0  0  0
   -1.9980    3.0671    0.5027 N   0  0  0  0  0  0  0  0  0  0  0  0
   -0.6642    2.8781    0.4349 N   0  0  0  0  0  0  0  0  0  0  0  0
    0.8847    1.0816   -0.0691 C   0  0  0  0  0  0  0  0  0  0  0  0
   -2.5409    4.3297    0.8754 C   0  0  0  0  0  0  0  0  0  0  0  0
    1.2619   -0.1717    0.4197 C   0  0  0  0  0  0  0  0  0  0  0  0
    1.8566    1.8729   -0.7005 C   0  0  0  0  0  0  0  0  0  0  0  0
   -1.6699    5.3878    1.1856 C   0  0  0  0  0  0  0  0  0  0  0  0
   -3.9265    4.5372    0.9451 C   0  0  0  0  0  0  0  0  0  0  0  0
    2.5768   -0.6247    0.2642 C   0  0  0  0  0  0  0  0  0  0  0  0
    3.1738    1.4200   -0.8507 C   0  0  0  0  0  0  0  0  0  0  0  0
   -2.1778    6.6341    1.5631 C   0  0  0  0  0  0  0  0  0  0  0  0
   -4.4283    5.7877    1.3230 C   0  0  0  0  0  0  0  0  0  0  0  0
    3.5399    0.1666   -0.3644 C   0  0  0  0  0  0  0  0  0  0  0  0
   -3.5542    6.8286    1.6299 C   0  0  0  0  0  0  0  0  0  0  0  0
    4.7848   -0.3931   -0.4300 O   0  0  0  0  0  0  0  0  0  0  0  0
   -4.1821    8.3589    2.0981 Cl  0  0  0  0  0  0  0  0  0  0  0  0
    5.8241    0.3987   -0.9984 C   0  0  0  0  0  0  0  0  0  0  0  0
    7.1142   -0.3820   -0.9165 C   0  0  0  0  0  0  0  0  0  0  0  0
    8.1024   -0.0388    0.0175 C   0  0  0  0  0  0  0  0  0  0  0  0
    7.3313   -1.4780   -1.7653 C   0  0  0  0  0  0  0  0  0  0  0  0
    9.2934   -0.7653    0.0876 C   0  0  0  0  0  0  0  0  0  0  0  0
    8.5219   -2.2044   -1.6959 C   0  0  0  0  0  0  0  0  0  0  0  0
    9.4992   -1.8431   -0.7717 C   0  0  0  0  0  0  0  0  0  0  0  0
   10.9694   -2.7329   -0.6900 Cl  0  0  0  0  0  0  0  0  0  0  0  0
   -3.4074   -3.0143    1.2774 H   0  0  0  0  0  0  0  0  0  0  0  0
   -1.7918   -1.4071    1.2407 H   0  0  0  0  0  0  0  0  0  0  0  0
   -3.3048   -0.7013    1.1461 H   0  0  0  0  0  0  0  0  0  0  0  0
   -1.1175   -0.9824   -0.8690 H   0  0  0  0  0  0  0  0  0  0  0  0
   -2.7415   -0.4484   -1.3318 H   0  0  0  0  0  0  0  0  0  0  0  0
   -3.7630   -2.8288   -1.7198 H   0  0  0  0  0  0  0  0  0  0  0  0
   -4.6348   -1.6537   -0.7573 H   0  0  0  0  0  0  0  0  0  0  0  0
   -6.0043   -3.5651   -1.3260 H   0  0  0  0  0  0  0  0  0  0  0  0
   -5.6999   -5.7924   -0.3436 H   0  0  0  0  0  0  0  0  0  0  0  0
   -4.1869   -5.2993    0.4216 H   0  0  0  0  0  0  0  0  0  0  0  0
   -4.3118   -5.3697   -1.3503 H   0  0  0  0  0  0  0  0  0  0  0  0
   -7.0159   -3.9494    0.8489 H   0  0  0  0  0  0  0  0  0  0  0  0
   -5.5373   -3.4833    1.6975 H   0  0  0  0  0  0  0  0  0  0  0  0
   -6.4513   -2.2757    0.7709 H   0  0  0  0  0  0  0  0  0  0  0  0
   -3.7521    1.8762    0.1464 H   0  0  0  0  0  0  0  0  0  0  0  0
    0.5665   -0.8204    0.9448 H   0  0  0  0  0  0  0  0  0  0  0  0
    1.5925    2.8605   -1.0763 H   0  0  0  0  0  0  0  0  0  0  0  0
   -0.5893    5.2569    1.1411 H   0  0  0  0  0  0  0  0  0  0  0  0
   -4.6451    3.7572    0.7156 H   0  0  0  0  0  0  0  0  0  0  0  0
    2.8482   -1.6071    0.6475 H   0  0  0  0  0  0  0  0  0  0  0  0
    3.8822    2.0753   -1.3465 H   0  0  0  0  0  0  0  0  0  0  0  0
   -1.4937    7.4439    1.8039 H   0  0  0  0  0  0  0  0  0  0  0  0
   -5.5029    5.9448    1.3777 H   0  0  0  0  0  0  0  0  0  0  0  0
    5.9304    1.3434   -0.4501 H   0  0  0  0  0  0  0  0  0  0  0  0
    5.6107    0.6198   -2.0524 H   0  0  0  0  0  0  0  0  0  0  0  0
    7.9488    0.7949    0.6994 H   0  0  0  0  0  0  0  0  0  0  0  0
    6.5659   -1.7736   -2.4803 H   0  0  0  0  0  0  0  0  0  0  0  0
   10.0517   -0.4868    0.8142 H   0  0  0  0  0  0  0  0  0  0  0  0
    8.6755   -3.0503   -2.3608 H   0  0  0  0  0  0  0  0  0  0  0  0
  1  2  1  0
  2  3  1  0
  1  4  1  0
  5  1  1  0
  4  6  2  0
  4  7  1  0
  8  5  1  0
  9  8  1  0
  8 10  1  0
  3 11  1  0
 11 12  2  0
 13 11  1  0
 12 14  1  0
 15 13  2  0
 13 16  1  0
 14 17  1  0
 14 15  1  0
 16 18  2  0
 19 16  1  0
 17 20  2  0
 21 17  1  0
 18 22  1  0
 23 19  2  0
 20 24  1  0
 25 21  2  0
 22 26  2  0
 26 23  1  0
 24 27  2  0
 27 25  1  0
 26 28  1  0
 27 29  1  0
 28 30  1  0
 30 31  1  0
 31 32  2  0
 33 31  1  0
 32 34  1  0
 35 33  2  0
 34 36  2  0
 36 35  1  0
 36 37  1  0
  1 38  1  1
  2 39  1  0
  2 40  1  0
  3 41  1  0
  3 42  1  0
  5 43  1  0
  5 44  1  0
  8 45  1  0
  9 46  1  0
  9 47  1  0
  9 48  1  0
 10 49  1  0
 10 50  1  0
 10 51  1  0
 12 52  1  0
 18 53  1  0
 19 54  1  0
 20 55  1  0
 21 56  1  0
 22 57  1  0
 23 58  1  0
 24 59  1  0
 25 60  1  0
 30 61  1  0
 30 62  1  0
 32 63  1  0
 33 64  1  0
 34 65  1  0
 35 66  1  0
M  CHG  2   2   1   7  -1
M  END
>  <SMILES_raw>  (164) 
CC(C)C[C@@H](C(O)=O)NCC1=CN(C2=CC=C(Cl)C=C2)N=C1C3=CC=C(OCC4=CC=C(Cl)C=C4)C=C3

>  <Protonation_Method>  (164) 
MolScrub

>  <Target_pH>  (164) 
7.4

$$$$
N-((3-(4-((4-chlorobenzyl)oxy)phenyl)-1-(4-chlorophenyl)-1H-pyrazol-4-yl)methyl)-L-phenylalanin
     RDKit          3D

 67 71  0  0  0  0  0  0  0  0999 V2000
   -2.5553   -1.5114    2.1800 C   0  0  2  0  0  0  0  0  0  0  0  0
   -1.0875   -1.2968    1.7667 N   0  0  0  0  0  0  0  0  0  0  0  0
   -0.3662   -0.1685    2.3590 C   0  0  0  0  0  0  0  0  0  0  0  0
   -2.6896   -2.9302    2.8043 C   0  0  0  0  0  0  0  0  0  0  0  0
   -3.5232   -1.2293    1.0268 C   0  0  0  0  0  0  0  0  0  0  0  0
   -1.5246   -3.4332    2.9543 O   0  0  0  0  0  0  0  0  0  0  0  0
   -3.8342   -3.3542    3.0618 O   0  0  0  0  0  0  0  0  0  0  0  0
   -3.0952   -1.7756   -0.3169 C   0  0  0  0  0  0  0  0  0  0  0  0
   -2.7081   -0.9033   -1.3454 C   0  0  0  0  0  0  0  0  0  0  0  0
   -3.0595   -3.1575   -0.5480 C   0  0  0  0  0  0  0  0  0  0  0  0
   -2.2749   -1.4069   -2.5722 C   0  0  0  0  0  0  0  0  0  0  0  0
   -2.6188   -3.6574   -1.7739 C   0  0  0  0  0  0  0  0  0  0  0  0
   -2.2240   -2.7832   -2.7839 C   0  0  0  0  0  0  0  0  0  0  0  0
   -0.7356    1.1272    1.7383 C   0  0  0  0  0  0  0  0  0  0  0  0
   -1.7045    2.0175    2.1622 C   0  0  0  0  0  0  0  0  0  0  0  0
   -0.2074    1.7221    0.5587 C   0  0  0  0  0  0  0  0  0  0  0  0
   -1.7411    3.0546    1.2565 N   0  0  0  0  0  0  0  0  0  0  0  0
   -0.8461    2.8580    0.2616 N   0  0  0  0  0  0  0  0  0  0  0  0
    0.8467    1.2187   -0.3144 C   0  0  0  0  0  0  0  0  0  0  0  0
   -2.5769    4.2070    1.2705 C   0  0  0  0  0  0  0  0  0  0  0  0
    2.1213    0.9335    0.1872 C   0  0  0  0  0  0  0  0  0  0  0  0
    0.5880    1.0111   -1.6721 C   0  0  0  0  0  0  0  0  0  0  0  0
   -2.4605    5.1545    0.2394 C   0  0  0  0  0  0  0  0  0  0  0  0
   -3.5117    4.4179    2.2945 C   0  0  0  0  0  0  0  0  0  0  0  0
    3.1158    0.4157   -0.6517 C   0  0  0  0  0  0  0  0  0  0  0  0
    1.5783    0.4846   -2.5041 C   0  0  0  0  0  0  0  0  0  0  0  0
   -3.2681    6.2959    0.2327 C   0  0  0  0  0  0  0  0  0  0  0  0
   -4.3183    5.5618    2.2820 C   0  0  0  0  0  0  0  0  0  0  0  0
    2.8464    0.1850   -2.0006 C   0  0  0  0  0  0  0  0  0  0  0  0
   -4.1934    6.4947    1.2537 C   0  0  0  0  0  0  0  0  0  0  0  0
    3.7091   -0.3415   -2.9201 O   0  0  0  0  0  0  0  0  0  0  0  0
   -5.1878    7.8976    1.2477 Cl  0  0  0  0  0  0  0  0  0  0  0  0
    5.0959   -0.4315   -2.5840 C   0  0  0  0  0  0  0  0  0  0  0  0
    5.4515   -1.6852   -1.8136 C   0  0  0  0  0  0  0  0  0  0  0  0
    4.7431   -2.8824   -1.9978 C   0  0  0  0  0  0  0  0  0  0  0  0
    6.5477   -1.6750   -0.9359 C   0  0  0  0  0  0  0  0  0  0  0  0
    5.1045   -4.0370   -1.2990 C   0  0  0  0  0  0  0  0  0  0  0  0
    6.9093   -2.8290   -0.2372 C   0  0  0  0  0  0  0  0  0  0  0  0
    6.1846   -4.0047   -0.4206 C   0  0  0  0  0  0  0  0  0  0  0  0
    6.6313   -5.4247    0.4409 Cl  0  0  0  0  0  0  0  0  0  0  0  0
   -2.7603   -0.8163    3.0045 H   0  0  0  0  0  0  0  0  0  0  0  0
   -0.6913   -2.1869    2.1695 H   0  0  0  0  0  0  0  0  0  0  0  0
   -0.9491   -1.4176    0.7584 H   0  0  0  0  0  0  0  0  0  0  0  0
    0.6983   -0.3836    2.2333 H   0  0  0  0  0  0  0  0  0  0  0  0
   -0.5681   -0.1688    3.4363 H   0  0  0  0  0  0  0  0  0  0  0  0
   -3.6507   -0.1422    0.9415 H   0  0  0  0  0  0  0  0  0  0  0  0
   -4.5241   -1.6174    1.2526 H   0  0  0  0  0  0  0  0  0  0  0  0
   -2.7468    0.1752   -1.2029 H   0  0  0  0  0  0  0  0  0  0  0  0
   -3.3802   -3.8620    0.2205 H   0  0  0  0  0  0  0  0  0  0  0  0
   -1.9847   -0.7274   -3.3701 H   0  0  0  0  0  0  0  0  0  0  0  0
   -2.5936   -4.7327   -1.9402 H   0  0  0  0  0  0  0  0  0  0  0  0
   -1.8896   -3.1757   -3.7402 H   0  0  0  0  0  0  0  0  0  0  0  0
   -2.3653    1.9826    3.0162 H   0  0  0  0  0  0  0  0  0  0  0  0
    2.3665    1.1253    1.2289 H   0  0  0  0  0  0  0  0  0  0  0  0
   -0.3851    1.2573   -2.0913 H   0  0  0  0  0  0  0  0  0  0  0  0
   -1.7418    5.0192   -0.5677 H   0  0  0  0  0  0  0  0  0  0  0  0
   -3.6416    3.7213    3.1166 H   0  0  0  0  0  0  0  0  0  0  0  0
    4.0842    0.1974   -0.2142 H   0  0  0  0  0  0  0  0  0  0  0  0
    1.3612    0.3132   -3.5563 H   0  0  0  0  0  0  0  0  0  0  0  0
   -3.1673    7.0217   -0.5708 H   0  0  0  0  0  0  0  0  0  0  0  0
   -5.0422    5.7196    3.0783 H   0  0  0  0  0  0  0  0  0  0  0  0
    5.6442   -0.4654   -3.5327 H   0  0  0  0  0  0  0  0  0  0  0  0
    5.4303    0.4778   -2.0687 H   0  0  0  0  0  0  0  0  0  0  0  0
    3.9021   -2.9222   -2.6884 H   0  0  0  0  0  0  0  0  0  0  0  0
    7.1311   -0.7681   -0.7911 H   0  0  0  0  0  0  0  0  0  0  0  0
    4.5429   -4.9555   -1.4499 H   0  0  0  0  0  0  0  0  0  0  0  0
    7.7594   -2.8074    0.4402 H   0  0  0  0  0  0  0  0  0  0  0  0
  1  2  1  0
  2  3  1  0
  1  4  1  0
  1  5  1  0
  4  6  2  0
  4  7  1  0
  5  8  1  0
  8  9  2  0
 10  8  1  0
  9 11  1  0
 12 10  2  0
 11 13  2  0
 13 12  1  0
  3 14  1  0
 14 15  2  0
 16 14  1  0
 15 17  1  0
 18 16  2  0
 16 19  1  0
 17 20  1  0
 17 18  1  0
 19 21  2  0
 22 19  1  0
 20 23  2  0
 24 20  1  0
 21 25  1  0
 26 22  2  0
 23 27  1  0
 28 24  2  0
 25 29  2  0
 29 26  1  0
 27 30  2  0
 30 28  1  0
 29 31  1  0
 30 32  1  0
 31 33  1  0
 33 34  1  0
 34 35  2  0
 36 34  1  0
 35 37  1  0
 38 36  2  0
 37 39  2  0
 39 38  1  0
 39 40  1  0
  1 41  1  1
  2 42  1  0
  2 43  1  0
  3 44  1  0
  3 45  1  0
  5 46  1  0
  5 47  1  0
  9 48  1  0
 10 49  1  0
 11 50  1  0
 12 51  1  0
 13 52  1  0
 15 53  1  0
 21 54  1  0
 22 55  1  0
 23 56  1  0
 24 57  1  0
 25 58  1  0
 26 59  1  0
 27 60  1  0
 28 61  1  0
 33 62  1  0
 33 63  1  0
 35 64  1  0
 36 65  1  0
 37 66  1  0
 38 67  1  0
M  CHG  2   2   1   7  -1
M  END
>  <SMILES_raw>  (165) 
O=C(O)[C@H](CC1=CC=CC=C1)NCC2=CN(C3=CC=C(Cl)C=C3)N=C2C4=CC=C(OCC5=CC=C(Cl)C=C5)C=C4

>  <Protonation_Method>  (165) 
MolScrub

>  <Target_pH>  (165) 
7.4

$$$$
N-((3-(4-((4-chlorobenzyl)oxy)phenyl)-1-(4-chlorophenyl)-1H-pyrazol-4-yl)methyl)-L-tryptophan
     RDKit          3D

 71 76  0  0  0  0  0  0  0  0999 V2000
   -2.6291   -1.5372   -2.0342 C   0  0  2  0  0  0  0  0  0  0  0  0
   -1.8512   -0.2577   -1.6733 N   0  0  0  0  0  0  0  0  0  0  0  0
   -1.4665   -0.0908   -0.2692 C   0  0  0  0  0  0  0  0  0  0  0  0
   -1.8749   -2.2525   -3.1897 C   0  0  0  0  0  0  0  0  0  0  0  0
   -4.0644   -1.1826   -2.4154 C   0  0  0  0  0  0  0  0  0  0  0  0
   -2.4243   -3.2338   -3.7341 O   0  0  0  0  0  0  0  0  0  0  0  0
   -0.7566   -1.6640   -3.3915 O   0  0  0  0  0  0  0  0  0  0  0  0
   -4.9293   -0.9635   -1.2086 C   0  0  0  0  0  0  0  0  0  0  0  0
   -5.0987    0.2034   -0.4848 C   0  0  0  0  0  0  0  0  0  0  0  0
   -5.7624   -1.9597   -0.5998 C   0  0  0  0  0  0  0  0  0  0  0  0
   -5.9564   -0.0609    0.5544 N   0  0  0  0  0  0  0  0  0  0  0  0
   -6.3865   -1.3677    0.4969 C   0  0  0  0  0  0  0  0  0  0  0  0
   -6.0476   -3.3102   -0.8975 C   0  0  0  0  0  0  0  0  0  0  0  0
   -7.2889   -2.0636    1.3177 C   0  0  0  0  0  0  0  0  0  0  0  0
   -6.9573   -4.0118   -0.0981 C   0  0  0  0  0  0  0  0  0  0  0  0
   -7.5590   -3.3999    0.9990 C   0  0  0  0  0  0  0  0  0  0  0  0
   -0.8631    1.2484   -0.0528 C   0  0  0  0  0  0  0  0  0  0  0  0
   -1.4973    2.4754   -0.1399 C   0  0  0  0  0  0  0  0  0  0  0  0
    0.4733    1.5700    0.3113 C   0  0  0  0  0  0  0  0  0  0  0  0
   -0.5814    3.4413    0.2168 N   0  0  0  0  0  0  0  0  0  0  0  0
    0.6257    2.8916    0.4692 N   0  0  0  0  0  0  0  0  0  0  0  0
    1.6033    0.6704    0.5340 C   0  0  0  0  0  0  0  0  0  0  0  0
   -0.7874    4.8449    0.3498 C   0  0  0  0  0  0  0  0  0  0  0  0
    2.3572    0.7805    1.7089 C   0  0  0  0  0  0  0  0  0  0  0  0
    1.9579   -0.2999   -0.4102 C   0  0  0  0  0  0  0  0  0  0  0  0
    0.3036    5.6769    0.6544 C   0  0  0  0  0  0  0  0  0  0  0  0
   -2.0660    5.4097    0.2068 C   0  0  0  0  0  0  0  0  0  0  0  0
    3.4479   -0.0640    1.9439 C   0  0  0  0  0  0  0  0  0  0  0  0
    3.0539   -1.1368   -0.1771 C   0  0  0  0  0  0  0  0  0  0  0  0
    0.1209    7.0534    0.8063 C   0  0  0  0  0  0  0  0  0  0  0  0
   -2.2441    6.7874    0.3700 C   0  0  0  0  0  0  0  0  0  0  0  0
    3.8137   -1.0111    0.9886 C   0  0  0  0  0  0  0  0  0  0  0  0
   -1.1544    7.6027    0.6737 C   0  0  0  0  0  0  0  0  0  0  0  0
    4.8761   -1.8628    1.0724 O   0  0  0  0  0  0  0  0  0  0  0  0
   -1.3816    9.2952    0.8842 Cl  0  0  0  0  0  0  0  0  0  0  0  0
    5.8876   -1.5412    2.0314 C   0  0  0  0  0  0  0  0  0  0  0  0
    7.1622   -2.2435    1.6286 C   0  0  0  0  0  0  0  0  0  0  0  0
    7.8945   -1.7817    0.5268 C   0  0  0  0  0  0  0  0  0  0  0  0
    7.6223   -3.3681    2.3268 C   0  0  0  0  0  0  0  0  0  0  0  0
    9.0705   -2.4231    0.1340 C   0  0  0  0  0  0  0  0  0  0  0  0
    8.7981   -4.0108    1.9345 C   0  0  0  0  0  0  0  0  0  0  0  0
    9.5163   -3.5387    0.8390 C   0  0  0  0  0  0  0  0  0  0  0  0
   10.9610   -4.3455    0.3499 Cl  0  0  0  0  0  0  0  0  0  0  0  0
   -2.5823   -2.1923   -1.1529 H   0  0  0  0  0  0  0  0  0  0  0  0
   -0.9851   -0.4306   -2.2506 H   0  0  0  0  0  0  0  0  0  0  0  0
   -2.2729    0.5681   -2.1028 H   0  0  0  0  0  0  0  0  0  0  0  0
   -2.3679   -0.1884    0.3448 H   0  0  0  0  0  0  0  0  0  0  0  0
   -0.7935   -0.9133   -0.0044 H   0  0  0  0  0  0  0  0  0  0  0  0
   -4.5119   -1.9831   -3.0161 H   0  0  0  0  0  0  0  0  0  0  0  0
   -4.0969   -0.2889   -3.0549 H   0  0  0  0  0  0  0  0  0  0  0  0
   -4.6932    1.1993   -0.6085 H   0  0  0  0  0  0  0  0  0  0  0  0
   -6.2622    0.6065    1.2485 H   0  0  0  0  0  0  0  0  0  0  0  0
   -5.5875   -3.8042   -1.7499 H   0  0  0  0  0  0  0  0  0  0  0  0
   -7.7702   -1.5887    2.1632 H   0  0  0  0  0  0  0  0  0  0  0  0
   -7.2029   -5.0401   -0.3462 H   0  0  0  0  0  0  0  0  0  0  0  0
   -8.2613   -3.9648    1.6121 H   0  0  0  0  0  0  0  0  0  0  0  0
   -2.5131    2.7273   -0.3973 H   0  0  0  0  0  0  0  0  0  0  0  0
    2.1045    1.5387    2.4496 H   0  0  0  0  0  0  0  0  0  0  0  0
    1.4248   -0.4029   -1.3524 H   0  0  0  0  0  0  0  0  0  0  0  0
    1.3115    5.2725    0.7584 H   0  0  0  0  0  0  0  0  0  0  0  0
   -2.9459    4.8083   -0.0028 H   0  0  0  0  0  0  0  0  0  0  0  0
    3.9911    0.0504    2.8766 H   0  0  0  0  0  0  0  0  0  0  0  0
    3.3345   -1.8808   -0.9271 H   0  0  0  0  0  0  0  0  0  0  0  0
    0.9763    7.6818    1.0423 H   0  0  0  0  0  0  0  0  0  0  0  0
   -3.2394    7.2190    0.2789 H   0  0  0  0  0  0  0  0  0  0  0  0
    6.0930   -0.4646    2.0695 H   0  0  0  0  0  0  0  0  0  0  0  0
    5.5612   -1.8723    3.0259 H   0  0  0  0  0  0  0  0  0  0  0  0
    7.5380   -0.9223   -0.0407 H   0  0  0  0  0  0  0  0  0  0  0  0
    7.0631   -3.7620    3.1720 H   0  0  0  0  0  0  0  0  0  0  0  0
    9.6274   -2.0578   -0.7255 H   0  0  0  0  0  0  0  0  0  0  0  0
    9.1427   -4.8833    2.4833 H   0  0  0  0  0  0  0  0  0  0  0  0
  1  2  1  0
  2  3  1  0
  1  4  1  0
  1  5  1  0
  4  6  2  0
  4  7  1  0
  5  8  1  0
  8  9  2  0
 10  8  1  0
  9 11  1  0
 12 10  2  0
 10 13  1  0
 11 12  1  0
 14 12  1  0
 13 15  2  0
 16 14  2  0
 15 16  1  0
  3 17  1  0
 17 18  2  0
 19 17  1  0
 18 20  1  0
 21 19  2  0
 19 22  1  0
 20 23  1  0
 20 21  1  0
 22 24  2  0
 25 22  1  0
 23 26  2  0
 27 23  1  0
 24 28  1  0
 29 25  2  0
 26 30  1  0
 31 27  2  0
 28 32  2  0
 32 29  1  0
 30 33  2  0
 33 31  1  0
 32 34  1  0
 33 35  1  0
 34 36  1  0
 36 37  1  0
 37 38  2  0
 39 37  1  0
 38 40  1  0
 41 39  2  0
 40 42  2  0
 42 41  1  0
 42 43  1  0
  1 44  1  1
  2 45  1  0
  2 46  1  0
  3 47  1  0
  3 48  1  0
  5 49  1  0
  5 50  1  0
  9 51  1  0
 11 52  1  0
 13 53  1  0
 14 54  1  0
 15 55  1  0
 16 56  1  0
 18 57  1  0
 24 58  1  0
 25 59  1  0
 26 60  1  0
 27 61  1  0
 28 62  1  0
 29 63  1  0
 30 64  1  0
 31 65  1  0
 36 66  1  0
 36 67  1  0
 38 68  1  0
 39 69  1  0
 40 70  1  0
 41 71  1  0
M  CHG  2   2   1   7  -1
M  END
>  <SMILES_raw>  (166) 
O=C(O)[C@H](CC1=CNC2=C1C=CC=C2)NCC3=CN(C4=CC=C(Cl)C=C4)N=C3C5=CC=C(OCC6=CC=C(Cl)C=C6)C=C5

>  <Protonation_Method>  (166) 
MolScrub

>  <Target_pH>  (166) 
7.4

$$$$
3-(((3-(4-((4-chlorobenzyl)oxy)phenyl)-1-(4-chlorophenyl)-1Hpyrazol-4-yl)methyl)amino)benzoic acid 
     RDKit          3D

 60 64  0  0  0  0  0  0  0  0999 V2000
   -5.4845   -2.2655    0.0468 C   0  0  0  0  0  0  0  0  0  0  0  0
   -6.6698   -1.4071    0.4346 C   0  0  0  0  0  0  0  0  0  0  0  0
   -7.8224   -1.8162    0.0893 O   0  0  0  0  0  0  0  0  0  0  0  0
   -6.4191   -0.3278    1.0640 O   0  0  0  0  0  0  0  0  0  0  0  0
   -5.6038   -3.3034   -0.8832 C   0  0  0  0  0  0  0  0  0  0  0  0
   -4.2161   -2.0084    0.5979 C   0  0  0  0  0  0  0  0  0  0  0  0
   -4.4823   -4.0391   -1.2631 C   0  0  0  0  0  0  0  0  0  0  0  0
   -3.0620   -2.6821    0.1846 C   0  0  0  0  0  0  0  0  0  0  0  0
   -3.2252   -3.7250   -0.7351 C   0  0  0  0  0  0  0  0  0  0  0  0
   -1.7928   -2.3863    0.6608 N   0  0  0  0  0  0  0  0  0  0  0  0
   -1.4884   -1.1904    1.4335 C   0  0  0  0  0  0  0  0  0  0  0  0
   -1.4902    0.1028    0.6811 C   0  0  0  0  0  0  0  0  0  0  0  0
   -2.5571    0.9654    0.5254 C   0  0  0  0  0  0  0  0  0  0  0  0
   -0.4471    0.7078   -0.0729 C   0  0  0  0  0  0  0  0  0  0  0  0
   -2.1709    1.9567   -0.3377 N   0  0  0  0  0  0  0  0  0  0  0  0
   -0.8542    1.8471   -0.6526 N   0  0  0  0  0  0  0  0  0  0  0  0
    0.9154    0.2279   -0.2740 C   0  0  0  0  0  0  0  0  0  0  0  0
   -2.9708    3.0051   -0.8746 C   0  0  0  0  0  0  0  0  0  0  0  0
    1.7660    0.0024    0.8137 C   0  0  0  0  0  0  0  0  0  0  0  0
    1.3905   -0.0009   -1.5690 C   0  0  0  0  0  0  0  0  0  0  0  0
   -4.3531    3.0569   -0.6362 C   0  0  0  0  0  0  0  0  0  0  0  0
   -2.3693    3.9958   -1.6677 C   0  0  0  0  0  0  0  0  0  0  0  0
    3.0674   -0.4736    0.6120 C   0  0  0  0  0  0  0  0  0  0  0  0
    2.6900   -0.4747   -1.7679 C   0  0  0  0  0  0  0  0  0  0  0  0
   -5.1184    4.0953   -1.1786 C   0  0  0  0  0  0  0  0  0  0  0  0
   -3.1389    5.0321   -2.2038 C   0  0  0  0  0  0  0  0  0  0  0  0
    3.5284   -0.7289   -0.6798 C   0  0  0  0  0  0  0  0  0  0  0  0
   -4.5093    5.0780   -1.9557 C   0  0  0  0  0  0  0  0  0  0  0  0
    4.7746   -1.1854   -1.0101 O   0  0  0  0  0  0  0  0  0  0  0  0
   -5.4526    6.3565   -2.6181 Cl  0  0  0  0  0  0  0  0  0  0  0  0
    5.5373   -1.8385    0.0079 C   0  0  0  0  0  0  0  0  0  0  0  0
    6.4235   -0.8941    0.7924 C   0  0  0  0  0  0  0  0  0  0  0  0
    6.9310    0.2804    0.2167 C   0  0  0  0  0  0  0  0  0  0  0  0
    6.7942   -1.2188    2.1069 C   0  0  0  0  0  0  0  0  0  0  0  0
    7.7704    1.1255    0.9466 C   0  0  0  0  0  0  0  0  0  0  0  0
    7.6343   -0.3743    2.8370 C   0  0  0  0  0  0  0  0  0  0  0  0
    8.1175    0.7950    2.2539 C   0  0  0  0  0  0  0  0  0  0  0  0
    9.1550    1.8326    3.1528 Cl  0  0  0  0  0  0  0  0  0  0  0  0
   -6.5799   -3.5245   -1.3108 H   0  0  0  0  0  0  0  0  0  0  0  0
   -4.1676   -1.2333    1.3559 H   0  0  0  0  0  0  0  0  0  0  0  0
   -4.5867   -4.8447   -1.9827 H   0  0  0  0  0  0  0  0  0  0  0  0
   -2.3649   -4.3002   -1.0630 H   0  0  0  0  0  0  0  0  0  0  0  0
   -1.0147   -2.8275    0.1914 H   0  0  0  0  0  0  0  0  0  0  0  0
   -0.4958   -1.3383    1.8736 H   0  0  0  0  0  0  0  0  0  0  0  0
   -2.1540   -1.1189    2.3033 H   0  0  0  0  0  0  0  0  0  0  0  0
   -3.5643    0.9084    0.9146 H   0  0  0  0  0  0  0  0  0  0  0  0
    1.4295    0.2156    1.8256 H   0  0  0  0  0  0  0  0  0  0  0  0
    0.7469    0.1896   -2.4256 H   0  0  0  0  0  0  0  0  0  0  0  0
   -4.8742    2.2963   -0.0550 H   0  0  0  0  0  0  0  0  0  0  0  0
   -1.3006    3.9720   -1.8726 H   0  0  0  0  0  0  0  0  0  0  0  0
    3.6982   -0.6100    1.4835 H   0  0  0  0  0  0  0  0  0  0  0  0
    3.0460   -0.6493   -2.7798 H   0  0  0  0  0  0  0  0  0  0  0  0
   -6.1896    4.1170   -0.9924 H   0  0  0  0  0  0  0  0  0  0  0  0
   -2.6626    5.7938   -2.8140 H   0  0  0  0  0  0  0  0  0  0  0  0
    6.1951   -2.5502   -0.5056 H   0  0  0  0  0  0  0  0  0  0  0  0
    4.8931   -2.4374    0.6643 H   0  0  0  0  0  0  0  0  0  0  0  0
    6.6670    0.5486   -0.8051 H   0  0  0  0  0  0  0  0  0  0  0  0
    6.4279   -2.1316    2.5726 H   0  0  0  0  0  0  0  0  0  0  0  0
    8.1462    2.0363    0.4885 H   0  0  0  0  0  0  0  0  0  0  0  0
    7.9077   -0.6344    3.8559 H   0  0  0  0  0  0  0  0  0  0  0  0
  1  2  1  0
  2  3  2  0
  2  4  1  0
  1  5  2  0
  6  1  1  0
  5  7  1  0
  8  6  2  0
  7  9  2  0
  9  8  1  0
  8 10  1  0
 10 11  1  0
 11 12  1  0
 12 13  2  0
 14 12  1  0
 13 15  1  0
 16 14  2  0
 14 17  1  0
 15 18  1  0
 15 16  1  0
 17 19  2  0
 20 17  1  0
 18 21  2  0
 22 18  1  0
 19 23  1  0
 24 20  2  0
 21 25  1  0
 26 22  2  0
 23 27  2  0
 27 24  1  0
 25 28  2  0
 28 26  1  0
 27 29  1  0
 28 30  1  0
 29 31  1  0
 31 32  1  0
 32 33  2  0
 34 32  1  0
 33 35  1  0
 36 34  2  0
 35 37  2  0
 37 36  1  0
 37 38  1  0
  5 39  1  0
  6 40  1  0
  7 41  1  0
  9 42  1  0
 10 43  1  0
 11 44  1  0
 11 45  1  0
 13 46  1  0
 19 47  1  0
 20 48  1  0
 21 49  1  0
 22 50  1  0
 23 51  1  0
 24 52  1  0
 25 53  1  0
 26 54  1  0
 31 55  1  0
 31 56  1  0
 33 57  1  0
 34 58  1  0
 35 59  1  0
 36 60  1  0
M  CHG  1   4  -1
M  END
>  <SMILES_raw>  (167) 
O=C(O)C1=CC=CC(NCC2=CN(C3=CC=C(Cl)C=C3)N=C2C4=CC=C(OCC5=CC=C(Cl)C=C5)C=C4)=C1

>  <Protonation_Method>  (167) 
MolScrub

>  <Target_pH>  (167) 
7.4

$$$$
N-((3-(4-((4-chlorobenzyl)oxy)phenyl)-1-phenyl-1H-pyrazol-4-yl)methyl)-L-glycin
     RDKit          3D

 54 57  0  0  0  0  0  0  0  0999 V2000
   -3.2588   -4.0735   -1.0838 C   0  0  0  0  0  0  0  0  0  0  0  0
   -3.4970   -2.5725   -0.9671 N   0  0  0  0  0  0  0  0  0  0  0  0
   -2.2770   -1.7813   -0.7070 C   0  0  0  0  0  0  0  0  0  0  0  0
   -3.3472   -4.7282    0.3168 C   0  0  0  0  0  0  0  0  0  0  0  0
   -2.8818   -5.8808    0.4330 O   0  0  0  0  0  0  0  0  0  0  0  0
   -3.8732   -3.9096    1.1429 O   0  0  0  0  0  0  0  0  0  0  0  0
   -2.5539   -0.3379   -0.4839 C   0  0  0  0  0  0  0  0  0  0  0  0
   -3.7662    0.3192   -0.3766 C   0  0  0  0  0  0  0  0  0  0  0  0
   -1.5875    0.6848   -0.2708 C   0  0  0  0  0  0  0  0  0  0  0  0
   -3.4998    1.6464   -0.1097 N   0  0  0  0  0  0  0  0  0  0  0  0
   -2.1671    1.8712   -0.0702 N   0  0  0  0  0  0  0  0  0  0  0  0
   -0.1372    0.5510   -0.2129 C   0  0  0  0  0  0  0  0  0  0  0  0
   -4.4280    2.7030    0.1091 C   0  0  0  0  0  0  0  0  0  0  0  0
    0.5912    0.0783   -1.3113 C   0  0  0  0  0  0  0  0  0  0  0  0
    0.5405    0.8903    0.9622 C   0  0  0  0  0  0  0  0  0  0  0  0
   -3.9490    4.0019    0.3365 C   0  0  0  0  0  0  0  0  0  0  0  0
   -5.8104    2.4722    0.1126 C   0  0  0  0  0  0  0  0  0  0  0  0
    1.9815   -0.0789   -1.2260 C   0  0  0  0  0  0  0  0  0  0  0  0
    1.9249    0.7302    1.0441 C   0  0  0  0  0  0  0  0  0  0  0  0
   -4.8405    5.0532    0.5596 C   0  0  0  0  0  0  0  0  0  0  0  0
   -6.6961    3.5310    0.3362 C   0  0  0  0  0  0  0  0  0  0  0  0
    2.6512    0.2359   -0.0424 C   0  0  0  0  0  0  0  0  0  0  0  0
   -6.2121    4.8179    0.5568 C   0  0  0  0  0  0  0  0  0  0  0  0
    3.9936    0.1198    0.1814 O   0  0  0  0  0  0  0  0  0  0  0  0
    4.7761   -0.5093   -0.8286 C   0  0  0  0  0  0  0  0  0  0  0  0
    6.1759   -0.6730   -0.2882 C   0  0  0  0  0  0  0  0  0  0  0  0
    6.4802   -1.7407    0.5706 C   0  0  0  0  0  0  0  0  0  0  0  0
    7.1769    0.2588   -0.5981 C   0  0  0  0  0  0  0  0  0  0  0  0
    7.7669   -1.8852    1.0932 C   0  0  0  0  0  0  0  0  0  0  0  0
    8.4640    0.1142   -0.0748 C   0  0  0  0  0  0  0  0  0  0  0  0
    8.7536   -0.9580    0.7668 C   0  0  0  0  0  0  0  0  0  0  0  0
   10.3382   -1.1340    1.4131 Cl  0  0  0  0  0  0  0  0  0  0  0  0
   -2.2925   -4.2322   -1.5754 H   0  0  0  0  0  0  0  0  0  0  0  0
   -4.0700   -4.4598   -1.7110 H   0  0  0  0  0  0  0  0  0  0  0  0
   -4.0324   -2.5576   -0.0652 H   0  0  0  0  0  0  0  0  0  0  0  0
   -4.0930   -2.2043   -1.7061 H   0  0  0  0  0  0  0  0  0  0  0  0
   -1.6395   -1.9087   -1.5883 H   0  0  0  0  0  0  0  0  0  0  0  0
   -1.7747   -2.2155    0.1645 H   0  0  0  0  0  0  0  0  0  0  0  0
   -4.7789   -0.0466   -0.4348 H   0  0  0  0  0  0  0  0  0  0  0  0
    0.0932   -0.1494   -2.2512 H   0  0  0  0  0  0  0  0  0  0  0  0
   -0.0048    1.2804    1.8200 H   0  0  0  0  0  0  0  0  0  0  0  0
   -2.8806    4.2111    0.3509 H   0  0  0  0  0  0  0  0  0  0  0  0
   -6.2367    1.4869   -0.0358 H   0  0  0  0  0  0  0  0  0  0  0  0
    2.5109   -0.4372   -2.1037 H   0  0  0  0  0  0  0  0  0  0  0  0
    2.4426    0.9913    1.9652 H   0  0  0  0  0  0  0  0  0  0  0  0
   -4.4612    6.0550    0.7521 H   0  0  0  0  0  0  0  0  0  0  0  0
   -7.7682    3.3504    0.3469 H   0  0  0  0  0  0  0  0  0  0  0  0
   -6.9044    5.6364    0.7390 H   0  0  0  0  0  0  0  0  0  0  0  0
    4.7957    0.1079   -1.7348 H   0  0  0  0  0  0  0  0  0  0  0  0
    4.3742   -1.4988   -1.0817 H   0  0  0  0  0  0  0  0  0  0  0  0
    5.7107   -2.4600    0.8448 H   0  0  0  0  0  0  0  0  0  0  0  0
    6.9582    1.1079   -1.2418 H   0  0  0  0  0  0  0  0  0  0  0  0
    7.9884   -2.7164    1.7573 H   0  0  0  0  0  0  0  0  0  0  0  0
    9.2313    0.8428   -0.3210 H   0  0  0  0  0  0  0  0  0  0  0  0
  1  2  1  0
  2  3  1  0
  1  4  1  0
  4  5  2  0
  4  6  1  0
  3  7  1  0
  7  8  2  0
  9  7  1  0
  8 10  1  0
 11  9  2  0
  9 12  1  0
 10 13  1  0
 10 11  1  0
 12 14  2  0
 15 12  1  0
 13 16  2  0
 17 13  1  0
 14 18  1  0
 19 15  2  0
 16 20  1  0
 21 17  2  0
 18 22  2  0
 22 19  1  0
 20 23  2  0
 23 21  1  0
 22 24  1  0
 24 25  1  0
 25 26  1  0
 26 27  2  0
 28 26  1  0
 27 29  1  0
 30 28  2  0
 29 31  2  0
 31 30  1  0
 31 32  1  0
  1 33  1  0
  1 34  1  0
  2 35  1  0
  2 36  1  0
  3 37  1  0
  3 38  1  0
  8 39  1  0
 14 40  1  0
 15 41  1  0
 16 42  1  0
 17 43  1  0
 18 44  1  0
 19 45  1  0
 20 46  1  0
 21 47  1  0
 23 48  1  0
 25 49  1  0
 25 50  1  0
 27 51  1  0
 28 52  1  0
 29 53  1  0
 30 54  1  0
M  CHG  2   2   1   6  -1
M  END
>  <SMILES_raw>  (168) 
O=C(O)CNCC1=CN(C2=CC=CC=C2)N=C1C3=CC=C(OCC4=CC=C(Cl)C=C4)C=C3

>  <Protonation_Method>  (168) 
MolScrub

>  <Target_pH>  (168) 
7.4

$$$$
3-(((3-(4-(benzyloxy)phenyl)-1-(4-nitrophenyl)-1H-pyrazol-4-yl)methyl)amino)benzoic acid 
     RDKit          3D

 62 66  0  0  0  0  0  0  0  0999 V2000
   -3.7740    5.5569    0.5494 C   0  0  0  0  0  0  0  0  0  0  0  0
   -4.6421    6.2858    1.5551 C   0  0  0  0  0  0  0  0  0  0  0  0
   -4.8208    7.5315    1.3712 O   0  0  0  0  0  0  0  0  0  0  0  0
   -5.1300    5.5982    2.5078 O   0  0  0  0  0  0  0  0  0  0  0  0
   -3.1987    6.2345   -0.5328 C   0  0  0  0  0  0  0  0  0  0  0  0
   -3.5261    4.1770    0.6769 C   0  0  0  0  0  0  0  0  0  0  0  0
   -2.4055    5.5534   -1.4535 C   0  0  0  0  0  0  0  0  0  0  0  0
   -2.7372    3.4672   -0.2411 C   0  0  0  0  0  0  0  0  0  0  0  0
   -2.1791    4.1815   -1.3059 C   0  0  0  0  0  0  0  0  0  0  0  0
   -2.5468    2.1124   -0.0448 N   0  0  0  0  0  0  0  0  0  0  0  0
   -1.8416    1.2399   -0.9558 C   0  0  0  0  0  0  0  0  0  0  0  0
   -1.7879   -0.1878   -0.5161 C   0  0  0  0  0  0  0  0  0  0  0  0
   -2.8080   -1.1147   -0.6104 C   0  0  0  0  0  0  0  0  0  0  0  0
   -0.7113   -0.9028    0.0813 C   0  0  0  0  0  0  0  0  0  0  0  0
   -2.3323   -2.2999   -0.1109 N   0  0  0  0  0  0  0  0  0  0  0  0
   -1.0400   -2.1900    0.2724 N   0  0  0  0  0  0  0  0  0  0  0  0
    0.6182   -0.4186    0.4546 C   0  0  0  0  0  0  0  0  0  0  0  0
   -3.0210   -3.5422    0.0112 C   0  0  0  0  0  0  0  0  0  0  0  0
    0.7907    0.8172    1.0868 C   0  0  0  0  0  0  0  0  0  0  0  0
    1.7492   -1.2017    0.1875 C   0  0  0  0  0  0  0  0  0  0  0  0
   -2.3444   -4.6536    0.5446 C   0  0  0  0  0  0  0  0  0  0  0  0
   -4.3595   -3.6754   -0.3884 C   0  0  0  0  0  0  0  0  0  0  0  0
    2.0723    1.2635    1.4255 C   0  0  0  0  0  0  0  0  0  0  0  0
    3.0310   -0.7537    0.5296 C   0  0  0  0  0  0  0  0  0  0  0  0
   -2.9926   -5.8855    0.6749 C   0  0  0  0  0  0  0  0  0  0  0  0
   -5.0126   -4.9075   -0.2604 C   0  0  0  0  0  0  0  0  0  0  0  0
    3.1970    0.4805    1.1558 C   0  0  0  0  0  0  0  0  0  0  0  0
   -4.3264   -6.0081    0.2697 C   0  0  0  0  0  0  0  0  0  0  0  0
    4.3870    1.0416    1.5273 O   0  0  0  0  0  0  0  0  0  0  0  0
   -5.0107   -7.3006    0.3990 N   0  0  0  0  0  0  0  0  0  0  0  0
    5.5438    0.2026    1.5768 C   0  0  0  0  0  0  0  0  0  0  0  0
   -6.1836   -7.3747    0.0047 O   0  0  0  0  0  0  0  0  0  0  0  0
   -4.3751   -8.2451    0.8901 O   0  0  0  0  0  0  0  0  0  0  0  0
    6.2726    0.0953    0.2549 C   0  0  0  0  0  0  0  0  0  0  0  0
    7.0366   -1.0470   -0.0288 C   0  0  0  0  0  0  0  0  0  0  0  0
    6.2465    1.1385   -0.6812 C   0  0  0  0  0  0  0  0  0  0  0  0
    7.7355   -1.1529   -1.2327 C   0  0  0  0  0  0  0  0  0  0  0  0
    6.9449    1.0307   -1.8849 C   0  0  0  0  0  0  0  0  0  0  0  0
    7.6875   -0.1150   -2.1611 C   0  0  0  0  0  0  0  0  0  0  0  0
   -3.3780    7.3023   -0.6468 H   0  0  0  0  0  0  0  0  0  0  0  0
   -3.9764    3.6591    1.5231 H   0  0  0  0  0  0  0  0  0  0  0  0
   -1.9651    6.0941   -2.2853 H   0  0  0  0  0  0  0  0  0  0  0  0
   -1.5546    3.6886   -2.0422 H   0  0  0  0  0  0  0  0  0  0  0  0
   -3.0149    1.6943    0.7503 H   0  0  0  0  0  0  0  0  0  0  0  0
   -0.8222    1.6089   -1.1174 H   0  0  0  0  0  0  0  0  0  0  0  0
   -2.3365    1.2691   -1.9359 H   0  0  0  0  0  0  0  0  0  0  0  0
   -3.8124   -0.9997   -0.9885 H   0  0  0  0  0  0  0  0  0  0  0  0
   -0.0624    1.4464    1.3337 H   0  0  0  0  0  0  0  0  0  0  0  0
    1.6366   -2.1683   -0.2996 H   0  0  0  0  0  0  0  0  0  0  0  0
   -1.3064   -4.5715    0.8670 H   0  0  0  0  0  0  0  0  0  0  0  0
   -4.9245   -2.8429   -0.7990 H   0  0  0  0  0  0  0  0  0  0  0  0
    2.1883    2.2302    1.9106 H   0  0  0  0  0  0  0  0  0  0  0  0
    3.8729   -1.3879    0.2759 H   0  0  0  0  0  0  0  0  0  0  0  0
   -2.4450   -6.7281    1.0920 H   0  0  0  0  0  0  0  0  0  0  0  0
   -6.0515   -4.9886   -0.5754 H   0  0  0  0  0  0  0  0  0  0  0  0
    5.2962   -0.7831    1.9911 H   0  0  0  0  0  0  0  0  0  0  0  0
    6.2339    0.6679    2.2911 H   0  0  0  0  0  0  0  0  0  0  0  0
    7.0890   -1.8645    0.6869 H   0  0  0  0  0  0  0  0  0  0  0  0
    5.6721    2.0410   -0.4797 H   0  0  0  0  0  0  0  0  0  0  0  0
    8.3187   -2.0446   -1.4457 H   0  0  0  0  0  0  0  0  0  0  0  0
    6.9070    1.8434   -2.6057 H   0  0  0  0  0  0  0  0  0  0  0  0
    8.2296   -0.1973   -3.0991 H   0  0  0  0  0  0  0  0  0  0  0  0
  1  2  1  0
  2  3  2  0
  2  4  1  0
  1  5  2  0
  6  1  1  0
  5  7  1  0
  8  6  2  0
  7  9  2  0
  9  8  1  0
  8 10  1  0
 10 11  1  0
 11 12  1  0
 12 13  2  0
 14 12  1  0
 13 15  1  0
 16 14  2  0
 14 17  1  0
 15 18  1  0
 15 16  1  0
 17 19  2  0
 20 17  1  0
 18 21  2  0
 22 18  1  0
 19 23  1  0
 24 20  2  0
 21 25  1  0
 26 22  2  0
 23 27  2  0
 27 24  1  0
 25 28  2  0
 28 26  1  0
 27 29  1  0
 28 30  1  0
 29 31  1  0
 30 32  1  0
 30 33  2  0
 31 34  1  0
 34 35  2  0
 36 34  1  0
 35 37  1  0
 38 36  2  0
 37 39  2  0
 39 38  1  0
  5 40  1  0
  6 41  1  0
  7 42  1  0
  9 43  1  0
 10 44  1  0
 11 45  1  0
 11 46  1  0
 13 47  1  0
 19 48  1  0
 20 49  1  0
 21 50  1  0
 22 51  1  0
 23 52  1  0
 24 53  1  0
 25 54  1  0
 26 55  1  0
 31 56  1  0
 31 57  1  0
 35 58  1  0
 36 59  1  0
 37 60  1  0
 38 61  1  0
 39 62  1  0
M  CHG  3   4  -1  30   1  32  -1
M  END
>  <SMILES_raw>  (169) 
O=C(O)C1=CC=CC(NCC2=CN(C3=CC=C([N+]([O-])=O)C=C3)N=C2C4=CC=C(OCC5=CC=CC=C5)C=C4)=C1

>  <Protonation_Method>  (169) 
MolScrub

>  <Target_pH>  (169) 
7.4

$$$$
4-(((3-(4-(benzyloxy)phenyl)1-(4-nitrophenyl)-1H-pyrazol-4-yl)methyl)amino)benzoic acid 
     RDKit          3D

 62 66  0  0  0  0  0  0  0  0999 V2000
   -2.1848    5.8788   -1.1792 C   0  0  0  0  0  0  0  0  0  0  0  0
   -2.3413    7.3631   -1.4473 C   0  0  0  0  0  0  0  0  0  0  0  0
   -1.6082    7.8707   -2.3548 O   0  0  0  0  0  0  0  0  0  0  0  0
   -3.1967    7.9908   -0.7454 O   0  0  0  0  0  0  0  0  0  0  0  0
   -2.9660    5.2328   -0.2124 C   0  0  0  0  0  0  0  0  0  0  0  0
   -1.2595    5.1058   -1.8915 C   0  0  0  0  0  0  0  0  0  0  0  0
   -2.8285    3.8588    0.0311 C   0  0  0  0  0  0  0  0  0  0  0  0
   -1.1246    3.7333   -1.6435 C   0  0  0  0  0  0  0  0  0  0  0  0
   -1.9026    3.0849   -0.6753 C   0  0  0  0  0  0  0  0  0  0  0  0
   -1.7495    1.7213   -0.4964 N   0  0  0  0  0  0  0  0  0  0  0  0
   -2.5195    0.9377    0.4431 C   0  0  0  0  0  0  0  0  0  0  0  0
   -2.2752   -0.5374    0.3848 C   0  0  0  0  0  0  0  0  0  0  0  0
   -3.1515   -1.4961   -0.0871 C   0  0  0  0  0  0  0  0  0  0  0  0
   -1.1075   -1.2718    0.7419 C   0  0  0  0  0  0  0  0  0  0  0  0
   -2.5156   -2.7089   -0.0119 N   0  0  0  0  0  0  0  0  0  0  0  0
   -1.2698   -2.5815    0.4961 N   0  0  0  0  0  0  0  0  0  0  0  0
    0.1653   -0.7783    1.2680 C   0  0  0  0  0  0  0  0  0  0  0  0
   -3.0138   -3.9873   -0.4001 C   0  0  0  0  0  0  0  0  0  0  0  0
    0.2148    0.1352    2.3242 C   0  0  0  0  0  0  0  0  0  0  0  0
    1.3704   -1.2277    0.7103 C   0  0  0  0  0  0  0  0  0  0  0  0
   -2.1969   -5.1204   -0.2426 C   0  0  0  0  0  0  0  0  0  0  0  0
   -4.3015   -4.1336   -0.9383 C   0  0  0  0  0  0  0  0  0  0  0  0
    1.4459    0.6037    2.7944 C   0  0  0  0  0  0  0  0  0  0  0  0
    2.6023   -0.7595    1.1848 C   0  0  0  0  0  0  0  0  0  0  0  0
   -2.6570   -6.3860   -0.6190 C   0  0  0  0  0  0  0  0  0  0  0  0
   -4.7664   -5.3989   -1.3164 C   0  0  0  0  0  0  0  0  0  0  0  0
    2.6448    0.1597    2.2313 C   0  0  0  0  0  0  0  0  0  0  0  0
   -3.9419   -6.5202   -1.1563 C   0  0  0  0  0  0  0  0  0  0  0  0
    3.7685    0.7138    2.7784 O   0  0  0  0  0  0  0  0  0  0  0  0
   -4.4292   -7.8453   -1.5583 N   0  0  0  0  0  0  0  0  0  0  0  0
    5.0441    0.2020    2.3854 C   0  0  0  0  0  0  0  0  0  0  0  0
   -3.6459   -8.8020   -1.4675 O   0  0  0  0  0  0  0  0  0  0  0  0
   -5.5968   -7.9315   -1.9659 O   0  0  0  0  0  0  0  0  0  0  0  0
    5.5727    0.7777    1.0894 C   0  0  0  0  0  0  0  0  0  0  0  0
    5.1755    2.0410    0.6298 C   0  0  0  0  0  0  0  0  0  0  0  0
    6.5221    0.0587    0.3472 C   0  0  0  0  0  0  0  0  0  0  0  0
    5.6902    2.5584   -0.5600 C   0  0  0  0  0  0  0  0  0  0  0  0
    7.0377    0.5786   -0.8414 C   0  0  0  0  0  0  0  0  0  0  0  0
    6.6190    1.8262   -1.2964 C   0  0  0  0  0  0  0  0  0  0  0  0
   -3.6935    5.8139    0.3526 H   0  0  0  0  0  0  0  0  0  0  0  0
   -0.6429    5.5845   -2.6507 H   0  0  0  0  0  0  0  0  0  0  0  0
   -3.4675    3.4220    0.7906 H   0  0  0  0  0  0  0  0  0  0  0  0
   -0.3983    3.1758   -2.2280 H   0  0  0  0  0  0  0  0  0  0  0  0
   -0.9827    1.2679   -0.9757 H   0  0  0  0  0  0  0  0  0  0  0  0
   -3.5889    1.1019    0.2509 H   0  0  0  0  0  0  0  0  0  0  0  0
   -2.3361    1.2908    1.4639 H   0  0  0  0  0  0  0  0  0  0  0  0
   -4.1504   -1.3853   -0.4801 H   0  0  0  0  0  0  0  0  0  0  0  0
   -0.6926    0.4907    2.8025 H   0  0  0  0  0  0  0  0  0  0  0  0
    1.3554   -1.9415   -0.1111 H   0  0  0  0  0  0  0  0  0  0  0  0
   -1.1931   -5.0303    0.1723 H   0  0  0  0  0  0  0  0  0  0  0  0
   -4.9672   -3.2864   -1.0804 H   0  0  0  0  0  0  0  0  0  0  0  0
    1.4681    1.3262    3.6071 H   0  0  0  0  0  0  0  0  0  0  0  0
    3.5015   -1.1207    0.6982 H   0  0  0  0  0  0  0  0  0  0  0  0
   -2.0025   -7.2460   -0.4888 H   0  0  0  0  0  0  0  0  0  0  0  0
   -5.7673   -5.4894   -1.7341 H   0  0  0  0  0  0  0  0  0  0  0  0
    5.0338   -0.8954    2.3711 H   0  0  0  0  0  0  0  0  0  0  0  0
    5.7472    0.4887    3.1769 H   0  0  0  0  0  0  0  0  0  0  0  0
    4.4507    2.6285    1.1909 H   0  0  0  0  0  0  0  0  0  0  0  0
    6.8633   -0.9154    0.6892 H   0  0  0  0  0  0  0  0  0  0  0  0
    5.3599    3.5324   -0.9123 H   0  0  0  0  0  0  0  0  0  0  0  0
    7.7646    0.0094   -1.4146 H   0  0  0  0  0  0  0  0  0  0  0  0
    7.0156    2.2307   -2.2234 H   0  0  0  0  0  0  0  0  0  0  0  0
  1  2  1  0
  2  3  2  0
  2  4  1  0
  1  5  2  0
  6  1  1  0
  5  7  1  0
  8  6  2  0
  7  9  2  0
  9  8  1  0
  9 10  1  0
 10 11  1  0
 11 12  1  0
 12 13  2  0
 14 12  1  0
 13 15  1  0
 16 14  2  0
 14 17  1  0
 15 18  1  0
 15 16  1  0
 17 19  2  0
 20 17  1  0
 18 21  2  0
 22 18  1  0
 19 23  1  0
 24 20  2  0
 21 25  1  0
 26 22  2  0
 23 27  2  0
 27 24  1  0
 25 28  2  0
 28 26  1  0
 27 29  1  0
 28 30  1  0
 29 31  1  0
 30 32  1  0
 30 33  2  0
 31 34  1  0
 34 35  2  0
 36 34  1  0
 35 37  1  0
 38 36  2  0
 37 39  2  0
 39 38  1  0
  5 40  1  0
  6 41  1  0
  7 42  1  0
  8 43  1  0
 10 44  1  0
 11 45  1  0
 11 46  1  0
 13 47  1  0
 19 48  1  0
 20 49  1  0
 21 50  1  0
 22 51  1  0
 23 52  1  0
 24 53  1  0
 25 54  1  0
 26 55  1  0
 31 56  1  0
 31 57  1  0
 35 58  1  0
 36 59  1  0
 37 60  1  0
 38 61  1  0
 39 62  1  0
M  CHG  3   4  -1  30   1  32  -1
M  END
>  <SMILES_raw>  (170) 
O=C(O)C1=CC=C(NCC2=CN(C3=CC=C([N+]([O-])=O)C=C3)N=C2C4=CC=C(OCC5=CC=CC=C5)C=C4)C=C1

>  <Protonation_Method>  (170) 
MolScrub

>  <Target_pH>  (170) 
7.4

$$$$
2-(((3-(4-(benzyloxy)phenyl)1-(4-nitrophenyl)-1H-pyrazol-4-yl)methyl)amino)benzoic acid 
     RDKit          3D

 62 66  0  0  0  0  0  0  0  0999 V2000
   -2.9666    4.4208    1.6121 C   0  0  0  0  0  0  0  0  0  0  0  0
   -3.6205    3.5888    2.7145 C   0  0  0  0  0  0  0  0  0  0  0  0
   -4.0399    4.2110    3.7432 O   0  0  0  0  0  0  0  0  0  0  0  0
   -3.7111    2.3277    2.5368 O   0  0  0  0  0  0  0  0  0  0  0  0
   -2.9650    5.8274    1.7439 C   0  0  0  0  0  0  0  0  0  0  0  0
   -2.3695    3.8403    0.4649 C   0  0  0  0  0  0  0  0  0  0  0  0
   -2.3976    6.6509    0.7746 C   0  0  0  0  0  0  0  0  0  0  0  0
   -1.8005    4.6917   -0.4973 C   0  0  0  0  0  0  0  0  0  0  0  0
   -2.3342    2.4654    0.3255 N   0  0  0  0  0  0  0  0  0  0  0  0
   -1.8157    6.0816   -0.3491 C   0  0  0  0  0  0  0  0  0  0  0  0
   -1.8367    1.7063   -0.7883 C   0  0  0  0  0  0  0  0  0  0  0  0
   -1.8995    0.2239   -0.6155 C   0  0  0  0  0  0  0  0  0  0  0  0
   -3.0046   -0.5808   -0.8073 C   0  0  0  0  0  0  0  0  0  0  0  0
   -0.8732   -0.6741   -0.2077 C   0  0  0  0  0  0  0  0  0  0  0  0
   -2.6228   -1.8692   -0.5409 N   0  0  0  0  0  0  0  0  0  0  0  0
   -1.3006   -1.9464   -0.2603 N   0  0  0  0  0  0  0  0  0  0  0  0
    0.4979   -0.3687    0.2010 C   0  0  0  0  0  0  0  0  0  0  0  0
   -3.4256   -3.0471   -0.5789 C   0  0  0  0  0  0  0  0  0  0  0  0
    0.7738    0.7084    1.0508 C   0  0  0  0  0  0  0  0  0  0  0  0
    1.5616   -1.1651   -0.2443 C   0  0  0  0  0  0  0  0  0  0  0  0
   -2.8324   -4.2933   -0.3106 C   0  0  0  0  0  0  0  0  0  0  0  0
   -4.7953   -2.9843   -0.8780 C   0  0  0  0  0  0  0  0  0  0  0  0
    2.0901    0.9911    1.4289 C   0  0  0  0  0  0  0  0  0  0  0  0
    2.8785   -0.8837    0.1400 C   0  0  0  0  0  0  0  0  0  0  0  0
   -3.5927   -5.4658   -0.3519 C   0  0  0  0  0  0  0  0  0  0  0  0
   -5.5611   -4.1556   -0.9204 C   0  0  0  0  0  0  0  0  0  0  0  0
    3.1456    0.1912    0.9871 C   0  0  0  0  0  0  0  0  0  0  0  0
   -4.9559   -5.3918   -0.6609 C   0  0  0  0  0  0  0  0  0  0  0  0
    4.3850    0.5763    1.4187 O   0  0  0  0  0  0  0  0  0  0  0  0
   -5.7568   -6.6208   -0.7183 N   0  0  0  0  0  0  0  0  0  0  0  0
    5.4076   -0.4226    1.4557 C   0  0  0  0  0  0  0  0  0  0  0  0
   -5.1826   -7.6971   -0.4994 O   0  0  0  0  0  0  0  0  0  0  0  0
   -6.9606   -6.5148   -0.9927 O   0  0  0  0  0  0  0  0  0  0  0  0
    6.2383   -0.4841    0.1914 C   0  0  0  0  0  0  0  0  0  0  0  0
    6.3940    0.6341   -0.6398 C   0  0  0  0  0  0  0  0  0  0  0  0
    6.9135   -1.6701   -0.1388 C   0  0  0  0  0  0  0  0  0  0  0  0
    7.1827    0.5603   -1.7897 C   0  0  0  0  0  0  0  0  0  0  0  0
    7.7030   -1.7420   -1.2886 C   0  0  0  0  0  0  0  0  0  0  0  0
    7.8345   -0.6282   -2.1150 C   0  0  0  0  0  0  0  0  0  0  0  0
   -3.4206    6.2748    2.6274 H   0  0  0  0  0  0  0  0  0  0  0  0
   -2.4139    7.7281    0.9067 H   0  0  0  0  0  0  0  0  0  0  0  0
   -1.3306    4.2783   -1.3839 H   0  0  0  0  0  0  0  0  0  0  0  0
   -2.8425    1.9713    1.0827 H   0  0  0  0  0  0  0  0  0  0  0  0
   -1.3704    6.7122   -1.1109 H   0  0  0  0  0  0  0  0  0  0  0  0
   -0.8013    1.9945   -1.0065 H   0  0  0  0  0  0  0  0  0  0  0  0
   -2.4168    1.9649   -1.6840 H   0  0  0  0  0  0  0  0  0  0  0  0
   -4.0123   -0.3107   -1.0812 H   0  0  0  0  0  0  0  0  0  0  0  0
   -0.0298    1.3322    1.4428 H   0  0  0  0  0  0  0  0  0  0  0  0
    1.3666   -2.0101   -0.9011 H   0  0  0  0  0  0  0  0  0  0  0  0
   -1.7731   -4.3618   -0.0635 H   0  0  0  0  0  0  0  0  0  0  0  0
   -5.2988   -2.0410   -1.0736 H   0  0  0  0  0  0  0  0  0  0  0  0
    2.2832    1.8353    2.0866 H   0  0  0  0  0  0  0  0  0  0  0  0
    3.6697   -1.5123   -0.2541 H   0  0  0  0  0  0  0  0  0  0  0  0
   -3.1080   -6.4162   -0.1401 H   0  0  0  0  0  0  0  0  0  0  0  0
   -6.6222   -4.0818   -1.1528 H   0  0  0  0  0  0  0  0  0  0  0  0
    4.9937   -1.4056    1.7189 H   0  0  0  0  0  0  0  0  0  0  0  0
    6.0824   -0.1444    2.2750 H   0  0  0  0  0  0  0  0  0  0  0  0
    5.8908    1.5698   -0.3985 H   0  0  0  0  0  0  0  0  0  0  0  0
    6.8244   -2.5479    0.4977 H   0  0  0  0  0  0  0  0  0  0  0  0
    7.2840    1.4313   -2.4315 H   0  0  0  0  0  0  0  0  0  0  0  0
    8.2144   -2.6680   -1.5397 H   0  0  0  0  0  0  0  0  0  0  0  0
    8.4461   -0.6844   -3.0118 H   0  0  0  0  0  0  0  0  0  0  0  0
  1  2  1  0
  2  3  2  0
  2  4  1  0
  1  5  2  0
  6  1  1  0
  5  7  1  0
  8  6  2  0
  6  9  1  0
  7 10  2  0
 10  8  1  0
  9 11  1  0
 11 12  1  0
 12 13  2  0
 14 12  1  0
 13 15  1  0
 16 14  2  0
 14 17  1  0
 15 18  1  0
 15 16  1  0
 17 19  2  0
 20 17  1  0
 18 21  2  0
 22 18  1  0
 19 23  1  0
 24 20  2  0
 21 25  1  0
 26 22  2  0
 23 27  2  0
 27 24  1  0
 25 28  2  0
 28 26  1  0
 27 29  1  0
 28 30  1  0
 29 31  1  0
 30 32  1  0
 30 33  2  0
 31 34  1  0
 34 35  2  0
 36 34  1  0
 35 37  1  0
 38 36  2  0
 37 39  2  0
 39 38  1  0
  5 40  1  0
  7 41  1  0
  8 42  1  0
  9 43  1  0
 10 44  1  0
 11 45  1  0
 11 46  1  0
 13 47  1  0
 19 48  1  0
 20 49  1  0
 21 50  1  0
 22 51  1  0
 23 52  1  0
 24 53  1  0
 25 54  1  0
 26 55  1  0
 31 56  1  0
 31 57  1  0
 35 58  1  0
 36 59  1  0
 37 60  1  0
 38 61  1  0
 39 62  1  0
M  CHG  3   4  -1  30   1  32  -1
M  END
>  <SMILES_raw>  (171) 
O=C(O)C1=CC=CC=C1NCC2=CN(C3=CC=C([N+]([O-])=O)C=C3)N=C2C4=CC=C(OCC5=CC=CC=C5)C=C4

>  <Protonation_Method>  (171) 
MolScrub

>  <Target_pH>  (171) 
7.4

$$$$
N-((3-(4-(benzyloxy)phenyl)-1(4-nitrophenyl)-1H-pyrazol-4-yl)methyl)-L-leucin
     RDKit          3D

 68 71  0  0  0  0  0  0  0  0999 V2000
   -2.7169   -2.9347   -0.7387 C   0  0  2  0  0  0  0  0  0  0  0  0
   -2.4697   -1.4212   -0.7443 N   0  0  0  0  0  0  0  0  0  0  0  0
   -1.7714   -0.8863    0.4345 C   0  0  0  0  0  0  0  0  0  0  0  0
   -1.7237   -3.5948   -1.7493 C   0  0  0  0  0  0  0  0  0  0  0  0
   -4.1607   -3.2219   -1.1539 C   0  0  0  0  0  0  0  0  0  0  0  0
   -1.0198   -2.6802   -2.2974 O   0  0  0  0  0  0  0  0  0  0  0  0
   -1.7408   -4.8370   -1.8566 O   0  0  0  0  0  0  0  0  0  0  0  0
   -5.2448   -2.6394   -0.2228 C   0  0  0  0  0  0  0  0  0  0  0  0
   -6.6322   -2.9203   -0.8081 C   0  0  0  0  0  0  0  0  0  0  0  0
   -5.1598   -3.2074    1.1950 C   0  0  0  0  0  0  0  0  0  0  0  0
   -1.4875    0.5619    0.2809 C   0  0  0  0  0  0  0  0  0  0  0  0
   -2.4059    1.5973    0.2687 C   0  0  0  0  0  0  0  0  0  0  0  0
   -0.2244    1.2084    0.1570 C   0  0  0  0  0  0  0  0  0  0  0  0
   -1.6986    2.7742    0.1603 N   0  0  0  0  0  0  0  0  0  0  0  0
   -0.3715    2.5381    0.1167 N   0  0  0  0  0  0  0  0  0  0  0  0
    1.1123    0.6191    0.1157 C   0  0  0  0  0  0  0  0  0  0  0  0
   -2.2017    4.1065    0.1131 C   0  0  0  0  0  0  0  0  0  0  0  0
    1.4180   -0.4369   -0.7476 C   0  0  0  0  0  0  0  0  0  0  0  0
    2.1206    1.1273    0.9463 C   0  0  0  0  0  0  0  0  0  0  0  0
   -1.2957    5.1785    0.0142 C   0  0  0  0  0  0  0  0  0  0  0  0
   -3.5789    4.3696    0.1639 C   0  0  0  0  0  0  0  0  0  0  0  0
    2.7048   -0.9854   -0.7575 C   0  0  0  0  0  0  0  0  0  0  0  0
    3.4087    0.5784    0.9308 C   0  0  0  0  0  0  0  0  0  0  0  0
   -1.7562    6.4984   -0.0304 C   0  0  0  0  0  0  0  0  0  0  0  0
   -4.0441    5.6900    0.1188 C   0  0  0  0  0  0  0  0  0  0  0  0
    3.7059   -0.4826    0.0770 C   0  0  0  0  0  0  0  0  0  0  0  0
   -3.1312    6.7493    0.0234 C   0  0  0  0  0  0  0  0  0  0  0  0
    4.9153   -1.1074   -0.0412 O   0  0  0  0  0  0  0  0  0  0  0  0
   -3.6227    8.1320   -0.0199 N   0  0  0  0  0  0  0  0  0  0  0  0
    5.9976   -0.5801    0.7212 C   0  0  0  0  0  0  0  0  0  0  0  0
   -2.7845    9.0441    0.0209 O   0  0  0  0  0  0  0  0  0  0  0  0
   -4.8485    8.3028   -0.0910 O   0  0  0  0  0  0  0  0  0  0  0  0
    7.2373   -1.3765    0.3976 C   0  0  0  0  0  0  0  0  0  0  0  0
    7.5277   -2.5565    1.0972 C   0  0  0  0  0  0  0  0  0  0  0  0
    8.0972   -0.9687   -0.6319 C   0  0  0  0  0  0  0  0  0  0  0  0
    8.6688   -3.2996    0.7896 C   0  0  0  0  0  0  0  0  0  0  0  0
    9.2380   -1.7128   -0.9377 C   0  0  0  0  0  0  0  0  0  0  0  0
    9.5250   -2.8755   -0.2250 C   0  0  0  0  0  0  0  0  0  0  0  0
   -2.4934   -3.3069    0.2662 H   0  0  0  0  0  0  0  0  0  0  0  0
   -1.7745   -1.3831   -1.5369 H   0  0  0  0  0  0  0  0  0  0  0  0
   -3.2643   -0.8730   -1.0729 H   0  0  0  0  0  0  0  0  0  0  0  0
   -0.8654   -1.4797    0.5888 H   0  0  0  0  0  0  0  0  0  0  0  0
   -2.4332   -1.0441    1.2935 H   0  0  0  0  0  0  0  0  0  0  0  0
   -4.3217   -2.8397   -2.1721 H   0  0  0  0  0  0  0  0  0  0  0  0
   -4.3024   -4.3094   -1.2202 H   0  0  0  0  0  0  0  0  0  0  0  0
   -5.1311   -1.5505   -0.1617 H   0  0  0  0  0  0  0  0  0  0  0  0
   -6.7301   -2.4777   -1.8046 H   0  0  0  0  0  0  0  0  0  0  0  0
   -6.8183   -3.9961   -0.8935 H   0  0  0  0  0  0  0  0  0  0  0  0
   -7.4161   -2.4895   -0.1763 H   0  0  0  0  0  0  0  0  0  0  0  0
   -4.2250   -2.9208    1.6853 H   0  0  0  0  0  0  0  0  0  0  0  0
   -5.9787   -2.8262    1.8147 H   0  0  0  0  0  0  0  0  0  0  0  0
   -5.2219   -4.3010    1.1895 H   0  0  0  0  0  0  0  0  0  0  0  0
   -3.4822    1.5855    0.3499 H   0  0  0  0  0  0  0  0  0  0  0  0
    0.6848   -0.8409   -1.4421 H   0  0  0  0  0  0  0  0  0  0  0  0
    1.9098    1.9632    1.6108 H   0  0  0  0  0  0  0  0  0  0  0  0
   -0.2212    5.0006   -0.0323 H   0  0  0  0  0  0  0  0  0  0  0  0
   -4.3196    3.5784    0.2356 H   0  0  0  0  0  0  0  0  0  0  0  0
    2.9291   -1.8078   -1.4352 H   0  0  0  0  0  0  0  0  0  0  0  0
    4.1507    1.0086    1.5949 H   0  0  0  0  0  0  0  0  0  0  0  0
   -1.0338    7.3089   -0.1087 H   0  0  0  0  0  0  0  0  0  0  0  0
   -5.1167    5.8751    0.1588 H   0  0  0  0  0  0  0  0  0  0  0  0
    5.7882   -0.6606    1.7953 H   0  0  0  0  0  0  0  0  0  0  0  0
    6.1691    0.4754    0.4735 H   0  0  0  0  0  0  0  0  0  0  0  0
    6.8598   -2.9072    1.8807 H   0  0  0  0  0  0  0  0  0  0  0  0
    7.8782   -0.0720   -1.2073 H   0  0  0  0  0  0  0  0  0  0  0  0
    8.8845   -4.2140    1.3361 H   0  0  0  0  0  0  0  0  0  0  0  0
    9.8987   -1.3895   -1.7378 H   0  0  0  0  0  0  0  0  0  0  0  0
   10.4106   -3.4566   -0.4682 H   0  0  0  0  0  0  0  0  0  0  0  0
  1  2  1  0
  2  3  1  0
  1  4  1  0
  5  1  1  0
  4  6  2  0
  4  7  1  0
  8  5  1  0
  9  8  1  0
  8 10  1  0
  3 11  1  0
 11 12  2  0
 13 11  1  0
 12 14  1  0
 15 13  2  0
 13 16  1  0
 14 17  1  0
 14 15  1  0
 16 18  2  0
 19 16  1  0
 17 20  2  0
 21 17  1  0
 18 22  1  0
 23 19  2  0
 20 24  1  0
 25 21  2  0
 22 26  2  0
 26 23  1  0
 24 27  2  0
 27 25  1  0
 26 28  1  0
 27 29  1  0
 28 30  1  0
 29 31  1  0
 29 32  2  0
 30 33  1  0
 33 34  2  0
 35 33  1  0
 34 36  1  0
 37 35  2  0
 36 38  2  0
 38 37  1  0
  1 39  1  1
  2 40  1  0
  2 41  1  0
  3 42  1  0
  3 43  1  0
  5 44  1  0
  5 45  1  0
  8 46  1  0
  9 47  1  0
  9 48  1  0
  9 49  1  0
 10 50  1  0
 10 51  1  0
 10 52  1  0
 12 53  1  0
 18 54  1  0
 19 55  1  0
 20 56  1  0
 21 57  1  0
 22 58  1  0
 23 59  1  0
 24 60  1  0
 25 61  1  0
 30 62  1  0
 30 63  1  0
 34 64  1  0
 35 65  1  0
 36 66  1  0
 37 67  1  0
 38 68  1  0
M  CHG  4   2   1   7  -1  29   1  31  -1
M  END
>  <SMILES_raw>  (172) 
CC(C)C[C@@H](C(O)=O)NCC1=CN(C2=CC=C([N+]([O-])=O)C=C2)N=C1C3=CC=C(OCC4=CC=CC=C4)C=C3

>  <Protonation_Method>  (172) 
MolScrub

>  <Target_pH>  (172) 
7.4

$$$$
4-(((3-(4-((4-chlorobenzyl)oxy)phenyl)-1(4-nitrophenyl)-1H-pyrazol-4-yl)methyl)amino)benzoic acid 
     RDKit          3D

 62 66  0  0  0  0  0  0  0  0999 V2000
   -1.8294    5.9937   -0.9324 C   0  0  0  0  0  0  0  0  0  0  0  0
   -1.8638    7.4901   -1.1763 C   0  0  0  0  0  0  0  0  0  0  0  0
   -1.0402    7.9595   -2.0244 O   0  0  0  0  0  0  0  0  0  0  0  0
   -2.7153    8.1638   -0.5146 O   0  0  0  0  0  0  0  0  0  0  0  0
   -0.9201    5.1697   -1.6083 C   0  0  0  0  0  0  0  0  0  0  0  0
   -2.7095    5.3880   -0.0239 C   0  0  0  0  0  0  0  0  0  0  0  0
   -0.8974    3.7873   -1.3819 C   0  0  0  0  0  0  0  0  0  0  0  0
   -2.6833    4.0043    0.1990 C   0  0  0  0  0  0  0  0  0  0  0  0
   -1.7767    3.1792   -0.4745 C   0  0  0  0  0  0  0  0  0  0  0  0
   -1.7215    1.8079   -0.3066 N   0  0  0  0  0  0  0  0  0  0  0  0
   -2.5602    1.0673    0.6090 C   0  0  0  0  0  0  0  0  0  0  0  0
   -2.3509   -0.4151    0.6092 C   0  0  0  0  0  0  0  0  0  0  0  0
   -3.2944   -1.3754    0.2971 C   0  0  0  0  0  0  0  0  0  0  0  0
   -1.1645   -1.1594    0.8795 C   0  0  0  0  0  0  0  0  0  0  0  0
   -2.6780   -2.5983    0.3686 N   0  0  0  0  0  0  0  0  0  0  0  0
   -1.3829   -2.4761    0.7325 N   0  0  0  0  0  0  0  0  0  0  0  0
    0.1739   -0.6738    1.2268 C   0  0  0  0  0  0  0  0  0  0  0  0
   -3.2388   -3.8813    0.0999 C   0  0  0  0  0  0  0  0  0  0  0  0
    0.3661    0.3795    2.1243 C   0  0  0  0  0  0  0  0  0  0  0  0
    1.3015   -1.2679    0.6432 C   0  0  0  0  0  0  0  0  0  0  0  0
   -4.5753   -4.0214   -0.3058 C   0  0  0  0  0  0  0  0  0  0  0  0
   -2.4333   -5.0262    0.2356 C   0  0  0  0  0  0  0  0  0  0  0  0
    1.6559    0.8400    2.4107 C   0  0  0  0  0  0  0  0  0  0  0  0
    2.5926   -0.8081    0.9340 C   0  0  0  0  0  0  0  0  0  0  0  0
   -5.0996   -5.2917   -0.5754 C   0  0  0  0  0  0  0  0  0  0  0  0
   -2.9527   -6.2968   -0.0314 C   0  0  0  0  0  0  0  0  0  0  0  0
    2.7751    0.2497    1.8214 C   0  0  0  0  0  0  0  0  0  0  0  0
   -4.2854   -6.4240   -0.4380 C   0  0  0  0  0  0  0  0  0  0  0  0
    3.9679    0.8138    2.1772 O   0  0  0  0  0  0  0  0  0  0  0  0
   -4.8373   -7.7551   -0.7187 N   0  0  0  0  0  0  0  0  0  0  0  0
    5.1774    0.1729    1.7674 C   0  0  0  0  0  0  0  0  0  0  0  0
   -4.1057   -8.7360   -0.5265 O   0  0  0  0  0  0  0  0  0  0  0  0
   -6.0058   -7.8210   -1.1282 O   0  0  0  0  0  0  0  0  0  0  0  0
    5.6199    0.5362    0.3658 C   0  0  0  0  0  0  0  0  0  0  0  0
    6.4325   -0.3517   -0.3578 C   0  0  0  0  0  0  0  0  0  0  0  0
    5.2787    1.7674   -0.2147 C   0  0  0  0  0  0  0  0  0  0  0  0
    6.8700   -0.0266   -1.6447 C   0  0  0  0  0  0  0  0  0  0  0  0
    5.7145    2.0918   -1.5028 C   0  0  0  0  0  0  0  0  0  0  0  0
    6.5066    1.1933   -2.2125 C   0  0  0  0  0  0  0  0  0  0  0  0
    7.0485    1.5896   -3.7976 Cl  0  0  0  0  0  0  0  0  0  0  0  0
   -0.2261    5.6166   -2.3204 H   0  0  0  0  0  0  0  0  0  0  0  0
   -3.4259    6.0095    0.5124 H   0  0  0  0  0  0  0  0  0  0  0  0
   -0.1757    3.1898   -1.9321 H   0  0  0  0  0  0  0  0  0  0  0  0
   -3.3938    3.5997    0.9130 H   0  0  0  0  0  0  0  0  0  0  0  0
   -0.9975    1.3041   -0.8029 H   0  0  0  0  0  0  0  0  0  0  0  0
   -3.6126    1.2588    0.3574 H   0  0  0  0  0  0  0  0  0  0  0  0
   -2.4183    1.4357    1.6324 H   0  0  0  0  0  0  0  0  0  0  0  0
   -4.3294   -1.2610    0.0145 H   0  0  0  0  0  0  0  0  0  0  0  0
   -0.4730    0.8606    2.6157 H   0  0  0  0  0  0  0  0  0  0  0  0
    1.1772   -2.0896   -0.0595 H   0  0  0  0  0  0  0  0  0  0  0  0
   -5.2344   -3.1654   -0.4263 H   0  0  0  0  0  0  0  0  0  0  0  0
   -1.3932   -4.9410    0.5498 H   0  0  0  0  0  0  0  0  0  0  0  0
    1.7854    1.6734    3.0974 H   0  0  0  0  0  0  0  0  0  0  0  0
    3.4240   -1.2878    0.4313 H   0  0  0  0  0  0  0  0  0  0  0  0
   -6.1376   -5.3794   -0.8924 H   0  0  0  0  0  0  0  0  0  0  0  0
   -2.3071   -7.1652    0.0803 H   0  0  0  0  0  0  0  0  0  0  0  0
    5.9594    0.5190    2.4537 H   0  0  0  0  0  0  0  0  0  0  0  0
    5.1093   -0.9131    1.9068 H   0  0  0  0  0  0  0  0  0  0  0  0
    6.7281   -1.3058    0.0750 H   0  0  0  0  0  0  0  0  0  0  0  0
    4.6605    2.4816    0.3285 H   0  0  0  0  0  0  0  0  0  0  0  0
    7.4926   -0.7248   -2.1973 H   0  0  0  0  0  0  0  0  0  0  0  0
    5.4293    3.0448   -1.9415 H   0  0  0  0  0  0  0  0  0  0  0  0
  1  2  1  0
  2  3  2  0
  2  4  1  0
  1  5  2  0
  6  1  1  0
  5  7  1  0
  8  6  2  0
  7  9  2  0
  9  8  1  0
  9 10  1  0
 10 11  1  0
 11 12  1  0
 12 13  2  0
 14 12  1  0
 13 15  1  0
 16 14  2  0
 14 17  1  0
 15 18  1  0
 15 16  1  0
 17 19  2  0
 20 17  1  0
 18 21  2  0
 22 18  1  0
 19 23  1  0
 24 20  2  0
 21 25  1  0
 26 22  2  0
 23 27  2  0
 27 24  1  0
 25 28  2  0
 28 26  1  0
 27 29  1  0
 28 30  1  0
 29 31  1  0
 30 32  1  0
 30 33  2  0
 31 34  1  0
 34 35  2  0
 36 34  1  0
 35 37  1  0
 38 36  2  0
 37 39  2  0
 39 38  1  0
 39 40  1  0
  5 41  1  0
  6 42  1  0
  7 43  1  0
  8 44  1  0
 10 45  1  0
 11 46  1  0
 11 47  1  0
 13 48  1  0
 19 49  1  0
 20 50  1  0
 21 51  1  0
 22 52  1  0
 23 53  1  0
 24 54  1  0
 25 55  1  0
 26 56  1  0
 31 57  1  0
 31 58  1  0
 35 59  1  0
 36 60  1  0
 37 61  1  0
 38 62  1  0
M  CHG  3   4  -1  30   1  32  -1
M  END
>  <SMILES_raw>  (173) 
O=C(O)C1=CC=C(NCC2=CN(C3=CC=C([N+]([O-])=O)C=C3)N=C2C4=CC=C(OCC5=CC=C(Cl)C=C5)C=C4)C=C1

>  <Protonation_Method>  (173) 
MolScrub

>  <Target_pH>  (173) 
7.4

$$$$
N-((3-(2-(benzyloxy)phenyl)1-(4-bromophenyl)-1H-pyrazol-4-yl)methyl)glycin
     RDKit          3D

 54 57  0  0  0  0  0  0  0  0999 V2000
   -3.4295   -3.2587   -1.8652 C   0  0  0  0  0  0  0  0  0  0  0  0
   -2.8705   -2.4572   -0.6967 N   0  0  0  0  0  0  0  0  0  0  0  0
   -1.7941   -1.5079   -1.0488 C   0  0  0  0  0  0  0  0  0  0  0  0
   -4.6851   -2.5467   -2.4248 C   0  0  0  0  0  0  0  0  0  0  0  0
   -4.9779   -1.5390   -1.6924 O   0  0  0  0  0  0  0  0  0  0  0  0
   -5.1995   -3.0317   -3.4579 O   0  0  0  0  0  0  0  0  0  0  0  0
   -1.5662   -0.5474    0.0589 C   0  0  0  0  0  0  0  0  0  0  0  0
   -2.3763    0.5122    0.4173 C   0  0  0  0  0  0  0  0  0  0  0  0
   -0.4898   -0.4936    0.9855 C   0  0  0  0  0  0  0  0  0  0  0  0
   -1.7710    1.1602    1.4711 N   0  0  0  0  0  0  0  0  0  0  0  0
   -0.6369    0.5198    1.8451 N   0  0  0  0  0  0  0  0  0  0  0  0
    0.6737   -1.3689    1.0593 C   0  0  0  0  0  0  0  0  0  0  0  0
   -2.1878    2.3553    2.1244 C   0  0  0  0  0  0  0  0  0  0  0  0
    0.9049   -2.1101    2.2276 C   0  0  0  0  0  0  0  0  0  0  0  0
    1.5642   -1.4966   -0.0242 C   0  0  0  0  0  0  0  0  0  0  0  0
   -1.3731    2.9196    3.1272 C   0  0  0  0  0  0  0  0  0  0  0  0
   -3.3870    2.9925    1.7699 C   0  0  0  0  0  0  0  0  0  0  0  0
    1.9792   -2.9984    2.2934 C   0  0  0  0  0  0  0  0  0  0  0  0
    2.6268   -2.3977    0.0329 C   0  0  0  0  0  0  0  0  0  0  0  0
    1.4074   -0.7681   -1.1817 O   0  0  0  0  0  0  0  0  0  0  0  0
   -1.7499    4.1100    3.7603 C   0  0  0  0  0  0  0  0  0  0  0  0
   -3.7588    4.1846    2.4064 C   0  0  0  0  0  0  0  0  0  0  0  0
    2.8334   -3.1468    1.1942 C   0  0  0  0  0  0  0  0  0  0  0  0
    1.9331    0.5612   -1.0128 C   0  0  0  0  0  0  0  0  0  0  0  0
   -2.9393    4.7376    3.3953 C   0  0  0  0  0  0  0  0  0  0  0  0
    3.2468    0.7019   -1.7379 C   0  0  0  0  0  0  0  0  0  0  0  0
   -3.4432    6.3511    4.2470 Br  0  0  0  0  0  0  0  0  0  0  0  0
    4.4500    0.7481   -1.0222 C   0  0  0  0  0  0  0  0  0  0  0  0
    3.2849    0.7809   -3.1352 C   0  0  0  0  0  0  0  0  0  0  0  0
    5.6662    0.8988   -1.6896 C   0  0  0  0  0  0  0  0  0  0  0  0
    4.5026    0.9333   -3.7990 C   0  0  0  0  0  0  0  0  0  0  0  0
    5.6910    1.0012   -3.0748 C   0  0  0  0  0  0  0  0  0  0  0  0
   -2.6391   -3.3774   -2.6152 H   0  0  0  0  0  0  0  0  0  0  0  0
   -3.7129   -4.2336   -1.4582 H   0  0  0  0  0  0  0  0  0  0  0  0
   -2.6792   -3.0238    0.1323 H   0  0  0  0  0  0  0  0  0  0  0  0
   -3.7091   -1.8657   -0.4857 H   0  0  0  0  0  0  0  0  0  0  0  0
   -0.9108   -2.1102   -1.2751 H   0  0  0  0  0  0  0  0  0  0  0  0
   -2.0955   -0.9727   -1.9580 H   0  0  0  0  0  0  0  0  0  0  0  0
   -3.3026    0.8602   -0.0200 H   0  0  0  0  0  0  0  0  0  0  0  0
    0.2496   -1.9956    3.0945 H   0  0  0  0  0  0  0  0  0  0  0  0
   -0.4350    2.4482    3.4215 H   0  0  0  0  0  0  0  0  0  0  0  0
   -4.0583    2.5922    1.0098 H   0  0  0  0  0  0  0  0  0  0  0  0
    2.1502   -3.5778    3.1969 H   0  0  0  0  0  0  0  0  0  0  0  0
    3.3123   -2.4930   -0.8141 H   0  0  0  0  0  0  0  0  0  0  0  0
   -1.1015    4.5406    4.5250 H   0  0  0  0  0  0  0  0  0  0  0  0
   -4.6858    4.6741    2.1168 H   0  0  0  0  0  0  0  0  0  0  0  0
    3.6707   -3.8394    1.2463 H   0  0  0  0  0  0  0  0  0  0  0  0
    2.0412    0.8505    0.0408 H   0  0  0  0  0  0  0  0  0  0  0  0
    1.2064    1.2615   -1.4431 H   0  0  0  0  0  0  0  0  0  0  0  0
    4.4487    0.6664    0.0578 H   0  0  0  0  0  0  0  0  0  0  0  0
    2.3660    0.7235   -3.7147 H   0  0  0  0  0  0  0  0  0  0  0  0
    6.5922    0.9412   -1.1313 H   0  0  0  0  0  0  0  0  0  0  0  0
    4.5262    1.0025   -4.8859 H   0  0  0  0  0  0  0  0  0  0  0  0
    6.6383    1.1288   -3.5931 H   0  0  0  0  0  0  0  0  0  0  0  0
  1  2  1  0
  2  3  1  0
  1  4  1  0
  4  5  2  0
  4  6  1  0
  3  7  1  0
  7  8  2  0
  9  7  1  0
  8 10  1  0
 11  9  2  0
  9 12  1  0
 10 13  1  0
 10 11  1  0
 12 14  2  0
 15 12  1  0
 13 16  2  0
 17 13  1  0
 14 18  1  0
 19 15  2  0
 15 20  1  0
 16 21  1  0
 22 17  2  0
 18 23  2  0
 23 19  1  0
 20 24  1  0
 21 25  2  0
 25 22  1  0
 24 26  1  0
 25 27  1  0
 26 28  2  0
 29 26  1  0
 28 30  1  0
 31 29  2  0
 30 32  2  0
 32 31  1  0
  1 33  1  0
  1 34  1  0
  2 35  1  0
  2 36  1  0
  3 37  1  0
  3 38  1  0
  8 39  1  0
 14 40  1  0
 16 41  1  0
 17 42  1  0
 18 43  1  0
 19 44  1  0
 21 45  1  0
 22 46  1  0
 23 47  1  0
 24 48  1  0
 24 49  1  0
 28 50  1  0
 29 51  1  0
 30 52  1  0
 31 53  1  0
 32 54  1  0
M  CHG  2   2   1   6  -1
M  END
>  <SMILES_raw>  (174) 
O=C(O)CNCC1=CN(C2=CC=C(Br)C=C2)N=C1C3=CC=CC=C3OCC4=CC=CC=C4

>  <Protonation_Method>  (174) 
MolScrub

>  <Target_pH>  (174) 
7.4

$$$$
N-((1-(4-bromophenyl)-3-(2-((4-chlorobenzyl)oxy)phenyl)-1H-pyrazol-4-yl)methyl)-L-alanin
     RDKit          3D

 57 60  0  0  0  0  0  0  0  0999 V2000
   -3.2609   -2.2545   -0.6979 C   0  0  2  0  0  0  0  0  0  0  0  0
   -1.8678   -2.6976   -0.2408 N   0  0  0  0  0  0  0  0  0  0  0  0
   -0.6972   -2.0016   -0.7883 C   0  0  0  0  0  0  0  0  0  0  0  0
   -4.2200   -2.2671    0.5312 C   0  0  0  0  0  0  0  0  0  0  0  0
   -3.7201   -3.1746   -1.8118 C   0  0  0  0  0  0  0  0  0  0  0  0
   -3.5398   -2.4218    1.5995 O   0  0  0  0  0  0  0  0  0  0  0  0
   -5.4445   -2.1519    0.3159 O   0  0  0  0  0  0  0  0  0  0  0  0
   -0.5647   -0.5995   -0.3301 C   0  0  0  0  0  0  0  0  0  0  0  0
   -0.7810    0.5590   -1.0498 C   0  0  0  0  0  0  0  0  0  0  0  0
   -0.1838   -0.1435    0.9602 C   0  0  0  0  0  0  0  0  0  0  0  0
   -0.5299    1.6209   -0.2081 N   0  0  0  0  0  0  0  0  0  0  0  0
   -0.1945    1.1917    1.0314 N   0  0  0  0  0  0  0  0  0  0  0  0
    0.1833   -0.9506    2.1156 C   0  0  0  0  0  0  0  0  0  0  0  0
   -0.5603    3.0110   -0.5137 C   0  0  0  0  0  0  0  0  0  0  0  0
   -0.6601   -0.9716    3.2320 C   0  0  0  0  0  0  0  0  0  0  0  0
    1.3473   -1.7348    2.1269 C   0  0  0  0  0  0  0  0  0  0  0  0
   -0.8280    3.4662   -1.8125 C   0  0  0  0  0  0  0  0  0  0  0  0
   -0.3005    3.9443    0.5035 C   0  0  0  0  0  0  0  0  0  0  0  0
   -0.3530   -1.7769    4.3310 C   0  0  0  0  0  0  0  0  0  0  0  0
    1.6466   -2.5513    3.2184 C   0  0  0  0  0  0  0  0  0  0  0  0
    2.1876   -1.7884    1.0441 O   0  0  0  0  0  0  0  0  0  0  0  0
   -0.8343    4.8385   -2.0863 C   0  0  0  0  0  0  0  0  0  0  0  0
   -0.3093    5.3136    0.2254 C   0  0  0  0  0  0  0  0  0  0  0  0
    0.7970   -2.5661    4.3237 C   0  0  0  0  0  0  0  0  0  0  0  0
    3.1399   -0.7115    1.0751 C   0  0  0  0  0  0  0  0  0  0  0  0
   -0.5758    5.7539   -1.0681 C   0  0  0  0  0  0  0  0  0  0  0  0
    3.1853   -0.0694   -0.2926 C   0  0  0  0  0  0  0  0  0  0  0  0
   -0.5856    7.6055   -1.4468 Br  0  0  0  0  0  0  0  0  0  0  0  0
    2.9793    1.3106   -0.4355 C   0  0  0  0  0  0  0  0  0  0  0  0
    3.4236   -0.8428   -1.4387 C   0  0  0  0  0  0  0  0  0  0  0  0
    2.9775    1.9018   -1.7006 C   0  0  0  0  0  0  0  0  0  0  0  0
    3.4246   -0.2514   -2.7040 C   0  0  0  0  0  0  0  0  0  0  0  0
    3.1932    1.1169   -2.8292 C   0  0  0  0  0  0  0  0  0  0  0  0
    3.1578    1.8381   -4.3894 Cl  0  0  0  0  0  0  0  0  0  0  0  0
   -3.1808   -1.2216   -1.0511 H   0  0  0  0  0  0  0  0  0  0  0  0
   -1.9620   -2.5201    0.7926 H   0  0  0  0  0  0  0  0  0  0  0  0
   -1.8016   -3.7173   -0.2715 H   0  0  0  0  0  0  0  0  0  0  0  0
   -0.7711   -2.0592   -1.8799 H   0  0  0  0  0  0  0  0  0  0  0  0
    0.1753   -2.5926   -0.4958 H   0  0  0  0  0  0  0  0  0  0  0  0
   -4.6807   -2.8418   -2.2193 H   0  0  0  0  0  0  0  0  0  0  0  0
   -3.8557   -4.2002   -1.4511 H   0  0  0  0  0  0  0  0  0  0  0  0
   -2.9979   -3.1936   -2.6343 H   0  0  0  0  0  0  0  0  0  0  0  0
   -1.0832    0.7039   -2.0758 H   0  0  0  0  0  0  0  0  0  0  0  0
   -1.5757   -0.3808    3.2431 H   0  0  0  0  0  0  0  0  0  0  0  0
   -1.0273    2.7889   -2.6364 H   0  0  0  0  0  0  0  0  0  0  0  0
   -0.0933    3.6201    1.5224 H   0  0  0  0  0  0  0  0  0  0  0  0
   -1.0249   -1.7967    5.1866 H   0  0  0  0  0  0  0  0  0  0  0  0
    2.5363   -3.1747    3.2106 H   0  0  0  0  0  0  0  0  0  0  0  0
   -1.0418    5.1824   -3.0968 H   0  0  0  0  0  0  0  0  0  0  0  0
   -0.1092    6.0234    1.0243 H   0  0  0  0  0  0  0  0  0  0  0  0
    1.0239   -3.1981    5.1790 H   0  0  0  0  0  0  0  0  0  0  0  0
    4.1255   -1.1331    1.3050 H   0  0  0  0  0  0  0  0  0  0  0  0
    2.9131    0.0364    1.8470 H   0  0  0  0  0  0  0  0  0  0  0  0
    2.7910    1.9331    0.4379 H   0  0  0  0  0  0  0  0  0  0  0  0
    3.6025   -1.9125   -1.3474 H   0  0  0  0  0  0  0  0  0  0  0  0
    2.8001    2.9701   -1.7944 H   0  0  0  0  0  0  0  0  0  0  0  0
    3.6052   -0.8615   -3.5845 H   0  0  0  0  0  0  0  0  0  0  0  0
  1  2  1  0
  2  3  1  0
  1  4  1  0
  5  1  1  0
  4  6  2  0
  4  7  1  0
  3  8  1  0
  8  9  2  0
 10  8  1  0
  9 11  1  0
 12 10  2  0
 10 13  1  0
 11 14  1  0
 11 12  1  0
 13 15  2  0
 16 13  1  0
 14 17  2  0
 18 14  1  0
 15 19  1  0
 20 16  2  0
 16 21  1  0
 17 22  1  0
 23 18  2  0
 19 24  2  0
 24 20  1  0
 21 25  1  0
 22 26  2  0
 26 23  1  0
 25 27  1  0
 26 28  1  0
 27 29  2  0
 30 27  1  0
 29 31  1  0
 32 30  2  0
 31 33  2  0
 33 32  1  0
 33 34  1  0
  1 35  1  6
  2 36  1  0
  2 37  1  0
  3 38  1  0
  3 39  1  0
  5 40  1  0
  5 41  1  0
  5 42  1  0
  9 43  1  0
 15 44  1  0
 17 45  1  0
 18 46  1  0
 19 47  1  0
 20 48  1  0
 22 49  1  0
 23 50  1  0
 24 51  1  0
 25 52  1  0
 25 53  1  0
 29 54  1  0
 30 55  1  0
 31 56  1  0
 32 57  1  0
M  CHG  2   2   1   7  -1
M  END
>  <SMILES_raw>  (175) 
C[C@@H](C(O)=O)NCC1=CN(C2=CC=C(Br)C=C2)N=C1C3=CC=CC=C3OCC4=CC=C(Cl)C=C4

>  <Protonation_Method>  (175) 
MolScrub

>  <Target_pH>  (175) 
7.4

$$$$
((3-(2-(benzyloxy)phenyl)-1-(4-methoxyphenyl)-1H-pyrazol-4-yl)methyl)-L-aspartic acid 
     RDKit          3D

 63 66  0  0  0  0  0  0  0  0999 V2000
   -1.1085    3.8052   -1.0279 C   0  0  2  0  0  0  0  0  0  0  0  0
    0.2256    3.2331   -1.5215 N   0  0  0  0  0  0  0  0  0  0  0  0
    0.8965    2.2790   -0.6367 C   0  0  0  0  0  0  0  0  0  0  0  0
   -2.2982    3.0865   -1.7431 C   0  0  0  0  0  0  0  0  0  0  0  0
   -1.1858    5.2880   -1.3787 C   0  0  0  0  0  0  0  0  0  0  0  0
   -3.4247    3.1548   -1.1924 O   0  0  0  0  0  0  0  0  0  0  0  0
   -1.9151    2.4643   -2.7887 O   0  0  0  0  0  0  0  0  0  0  0  0
   -0.0075    5.9604   -0.7022 C   0  0  0  0  0  0  0  0  0  0  0  0
    1.1195    5.5223   -1.1065 O   0  0  0  0  0  0  0  0  0  0  0  0
   -0.2654    6.8117    0.1815 O   0  0  0  0  0  0  0  0  0  0  0  0
    0.1481    1.0254   -0.3804 C   0  0  0  0  0  0  0  0  0  0  0  0
   -0.6484    0.7198    0.7048 C   0  0  0  0  0  0  0  0  0  0  0  0
    0.0801   -0.1330   -1.1976 C   0  0  0  0  0  0  0  0  0  0  0  0
   -1.1275   -0.5565    0.5206 N   0  0  0  0  0  0  0  0  0  0  0  0
   -0.6602   -1.0960   -0.6326 N   0  0  0  0  0  0  0  0  0  0  0  0
    0.7179   -0.3492   -2.4882 C   0  0  0  0  0  0  0  0  0  0  0  0
   -1.9372   -1.3258    1.4040 C   0  0  0  0  0  0  0  0  0  0  0  0
   -0.0730   -0.3543   -3.6436 C   0  0  0  0  0  0  0  0  0  0  0  0
    2.1048   -0.5171   -2.6098 C   0  0  0  0  0  0  0  0  0  0  0  0
   -2.3419   -0.8229    2.6469 C   0  0  0  0  0  0  0  0  0  0  0  0
   -2.3177   -2.6245    1.0352 C   0  0  0  0  0  0  0  0  0  0  0  0
    0.5151   -0.5132   -4.9000 C   0  0  0  0  0  0  0  0  0  0  0  0
    2.6950   -0.6577   -3.8669 C   0  0  0  0  0  0  0  0  0  0  0  0
    2.9393   -0.4552   -1.5241 O   0  0  0  0  0  0  0  0  0  0  0  0
   -3.1069   -1.6209    3.5057 C   0  0  0  0  0  0  0  0  0  0  0  0
   -3.0895   -3.4138    1.8968 C   0  0  0  0  0  0  0  0  0  0  0  0
    1.8972   -0.6630   -5.0118 C   0  0  0  0  0  0  0  0  0  0  0  0
    2.9734   -1.7076   -0.8258 C   0  0  0  0  0  0  0  0  0  0  0  0
   -3.4810   -2.9170    3.1406 C   0  0  0  0  0  0  0  0  0  0  0  0
    3.1944   -1.4265    0.6409 C   0  0  0  0  0  0  0  0  0  0  0  0
   -4.2220   -3.5845    4.0766 O   0  0  0  0  0  0  0  0  0  0  0  0
    2.2432   -1.8172    1.5935 C   0  0  0  0  0  0  0  0  0  0  0  0
    4.3458   -0.7525    1.0717 C   0  0  0  0  0  0  0  0  0  0  0  0
   -4.6612   -4.8916    3.7301 C   0  0  0  0  0  0  0  0  0  0  0  0
    2.4349   -1.5322    2.9473 C   0  0  0  0  0  0  0  0  0  0  0  0
    4.5387   -0.4708    2.4247 C   0  0  0  0  0  0  0  0  0  0  0  0
    3.5826   -0.8591    3.3619 C   0  0  0  0  0  0  0  0  0  0  0  0
   -1.1548    3.6546    0.0586 H   0  0  0  0  0  0  0  0  0  0  0  0
   -0.0251    2.8185   -2.4385 H   0  0  0  0  0  0  0  0  0  0  0  0
    0.8623    4.0508   -1.6629 H   0  0  0  0  0  0  0  0  0  0  0  0
    1.8646    2.0664   -1.0991 H   0  0  0  0  0  0  0  0  0  0  0  0
    1.1068    2.8035    0.3034 H   0  0  0  0  0  0  0  0  0  0  0  0
   -1.1274    5.4539   -2.4622 H   0  0  0  0  0  0  0  0  0  0  0  0
   -2.1335    5.7172   -1.0315 H   0  0  0  0  0  0  0  0  0  0  0  0
   -0.9093    1.3139    1.5674 H   0  0  0  0  0  0  0  0  0  0  0  0
   -1.1499   -0.2010   -3.5660 H   0  0  0  0  0  0  0  0  0  0  0  0
   -2.0879    0.1798    2.9781 H   0  0  0  0  0  0  0  0  0  0  0  0
   -2.0317   -3.0342    0.0672 H   0  0  0  0  0  0  0  0  0  0  0  0
   -0.1105   -0.4976   -5.7895 H   0  0  0  0  0  0  0  0  0  0  0  0
    3.7730   -0.7497   -3.9539 H   0  0  0  0  0  0  0  0  0  0  0  0
   -3.4196   -1.2223    4.4688 H   0  0  0  0  0  0  0  0  0  0  0  0
   -3.3593   -4.4100    1.5632 H   0  0  0  0  0  0  0  0  0  0  0  0
    2.3522   -0.7670   -5.9928 H   0  0  0  0  0  0  0  0  0  0  0  0
    3.8118   -2.3019   -1.2084 H   0  0  0  0  0  0  0  0  0  0  0  0
    2.0603   -2.3001   -0.9661 H   0  0  0  0  0  0  0  0  0  0  0  0
    1.3363   -2.3318    1.2831 H   0  0  0  0  0  0  0  0  0  0  0  0
    5.0886   -0.4233    0.3471 H   0  0  0  0  0  0  0  0  0  0  0  0
   -5.2346   -5.2862    4.5755 H   0  0  0  0  0  0  0  0  0  0  0  0
   -3.8124   -5.5640    3.5636 H   0  0  0  0  0  0  0  0  0  0  0  0
   -5.3221   -4.8692    2.8571 H   0  0  0  0  0  0  0  0  0  0  0  0
    1.6825   -1.8231    3.6750 H   0  0  0  0  0  0  0  0  0  0  0  0
    5.4297    0.0624    2.7452 H   0  0  0  0  0  0  0  0  0  0  0  0
    3.7298   -0.6277    4.4133 H   0  0  0  0  0  0  0  0  0  0  0  0
  1  2  1  0
  2  3  1  0
  1  4  1  0
  5  1  1  0
  4  6  2  0
  4  7  1  0
  5  8  1  0
  8  9  2  0
  8 10  1  0
  3 11  1  0
 11 12  2  0
 13 11  1  0
 12 14  1  0
 15 13  2  0
 13 16  1  0
 14 17  1  0
 14 15  1  0
 16 18  2  0
 19 16  1  0
 17 20  2  0
 21 17  1  0
 18 22  1  0
 23 19  2  0
 19 24  1  0
 20 25  1  0
 26 21  2  0
 22 27  2  0
 27 23  1  0
 24 28  1  0
 25 29  2  0
 29 26  1  0
 28 30  1  0
 29 31  1  0
 30 32  2  0
 33 30  1  0
 31 34  1  0
 32 35  1  0
 36 33  2  0
 35 37  2  0
 37 36  1  0
  1 38  1  1
  2 39  1  0
  2 40  1  0
  3 41  1  0
  3 42  1  0
  5 43  1  0
  5 44  1  0
 12 45  1  0
 18 46  1  0
 20 47  1  0
 21 48  1  0
 22 49  1  0
 23 50  1  0
 25 51  1  0
 26 52  1  0
 27 53  1  0
 28 54  1  0
 28 55  1  0
 32 56  1  0
 33 57  1  0
 34 58  1  0
 34 59  1  0
 34 60  1  0
 35 61  1  0
 36 62  1  0
 37 63  1  0
M  CHG  3   2   1   7  -1  10  -1
M  END
>  <SMILES_raw>  (176) 
O=C(O)C[C@@H](C(O)=O)NCC1=CN(C2=CC=C(OC)C=C2)N=C1C3=CC=CC=C3OCC4=CC=CC=C4

>  <Protonation_Method>  (176) 
MolScrub

>  <Target_pH>  (176) 
7.4

$$$$
N-((3-(2-(benzyloxy)phenyl)-1-(3-nitrophenyl)-1H-pyrazol-4-yl)methyl)-L-leucin
     RDKit          3D

 68 71  0  0  0  0  0  0  0  0999 V2000
   -3.3569   -1.7619    0.1541 C   0  0  2  0  0  0  0  0  0  0  0  0
   -2.4805   -0.5341   -0.1803 N   0  0  0  0  0  0  0  0  0  0  0  0
   -1.2720   -0.3425    0.6330 C   0  0  0  0  0  0  0  0  0  0  0  0
   -3.4367   -2.6463   -1.1348 C   0  0  0  0  0  0  0  0  0  0  0  0
   -4.6892   -1.2394    0.6931 C   0  0  0  0  0  0  0  0  0  0  0  0
   -2.7853   -2.0765   -2.0728 O   0  0  0  0  0  0  0  0  0  0  0  0
   -4.0342   -3.7392   -1.0655 O   0  0  0  0  0  0  0  0  0  0  0  0
   -5.5766   -2.3464    1.3081 C   0  0  0  0  0  0  0  0  0  0  0  0
   -6.0400   -1.9543    2.7141 C   0  0  0  0  0  0  0  0  0  0  0  0
   -6.7995   -2.6248    0.4291 C   0  0  0  0  0  0  0  0  0  0  0  0
   -0.3671    0.6525    0.0090 C   0  0  0  0  0  0  0  0  0  0  0  0
   -0.4150    2.0312    0.1015 C   0  0  0  0  0  0  0  0  0  0  0  0
    0.7325    0.3936   -0.8548 C   0  0  0  0  0  0  0  0  0  0  0  0
    0.5981    2.5298   -0.6876 N   0  0  0  0  0  0  0  0  0  0  0  0
    1.2745    1.5337   -1.2978 N   0  0  0  0  0  0  0  0  0  0  0  0
    1.2332   -0.9047   -1.3030 C   0  0  0  0  0  0  0  0  0  0  0  0
    0.9635    3.8895   -0.9011 C   0  0  0  0  0  0  0  0  0  0  0  0
    1.1820   -1.2078   -2.6712 C   0  0  0  0  0  0  0  0  0  0  0  0
    1.7432   -1.8546   -0.3953 C   0  0  0  0  0  0  0  0  0  0  0  0
    2.0054    4.1881   -1.7976 C   0  0  0  0  0  0  0  0  0  0  0  0
    0.3153    4.9326   -0.2277 C   0  0  0  0  0  0  0  0  0  0  0  0
    1.6004   -2.4559   -3.1326 C   0  0  0  0  0  0  0  0  0  0  0  0
    2.1496   -3.1079   -0.8689 C   0  0  0  0  0  0  0  0  0  0  0  0
    1.7547   -1.5080    0.9341 O   0  0  0  0  0  0  0  0  0  0  0  0
    2.3998    5.5115   -2.0185 C   0  0  0  0  0  0  0  0  0  0  0  0
    0.7237    6.2572   -0.4558 C   0  0  0  0  0  0  0  0  0  0  0  0
    2.0772   -3.4044   -2.2317 C   0  0  0  0  0  0  0  0  0  0  0  0
    2.7980   -2.0567    1.7500 C   0  0  0  0  0  0  0  0  0  0  0  0
    1.7620    6.5525   -1.3465 C   0  0  0  0  0  0  0  0  0  0  0  0
    0.0565    7.3491    0.2628 N   0  0  0  0  0  0  0  0  0  0  0  0
    4.1775   -1.5535    1.3939 C   0  0  0  0  0  0  0  0  0  0  0  0
    0.6026    8.4593    0.2584 O   0  0  0  0  0  0  0  0  0  0  0  0
   -1.0135    7.0905    0.8337 O   0  0  0  0  0  0  0  0  0  0  0  0
    4.3970   -0.1959    1.1179 C   0  0  0  0  0  0  0  0  0  0  0  0
    5.2679   -2.4335    1.3736 C   0  0  0  0  0  0  0  0  0  0  0  0
    5.6772    0.2669    0.8123 C   0  0  0  0  0  0  0  0  0  0  0  0
    6.5472   -1.9686    1.0664 C   0  0  0  0  0  0  0  0  0  0  0  0
    6.7509   -0.6193    0.7847 C   0  0  0  0  0  0  0  0  0  0  0  0
   -2.8218   -2.3259    0.9273 H   0  0  0  0  0  0  0  0  0  0  0  0
   -3.0304    0.3083   -0.3548 H   0  0  0  0  0  0  0  0  0  0  0  0
   -2.1809   -0.8212   -1.1526 H   0  0  0  0  0  0  0  0  0  0  0  0
   -0.7986   -1.3194    0.7531 H   0  0  0  0  0  0  0  0  0  0  0  0
   -1.6040    0.0007    1.6194 H   0  0  0  0  0  0  0  0  0  0  0  0
   -4.4756   -0.4792    1.4573 H   0  0  0  0  0  0  0  0  0  0  0  0
   -5.2320   -0.7191   -0.1088 H   0  0  0  0  0  0  0  0  0  0  0  0
   -5.0059   -3.2770    1.4074 H   0  0  0  0  0  0  0  0  0  0  0  0
   -6.6305   -1.0314    2.6990 H   0  0  0  0  0  0  0  0  0  0  0  0
   -5.1796   -1.7969    3.3748 H   0  0  0  0  0  0  0  0  0  0  0  0
   -6.6571   -2.7451    3.1543 H   0  0  0  0  0  0  0  0  0  0  0  0
   -6.5100   -2.8780   -0.5942 H   0  0  0  0  0  0  0  0  0  0  0  0
   -7.4607   -1.7531    0.3802 H   0  0  0  0  0  0  0  0  0  0  0  0
   -7.3800   -3.4633    0.8279 H   0  0  0  0  0  0  0  0  0  0  0  0
   -1.0843    2.6776    0.6485 H   0  0  0  0  0  0  0  0  0  0  0  0
    0.7938   -0.4820   -3.3819 H   0  0  0  0  0  0  0  0  0  0  0  0
    2.5272    3.3954   -2.3331 H   0  0  0  0  0  0  0  0  0  0  0  0
   -0.4839    4.7411    0.4819 H   0  0  0  0  0  0  0  0  0  0  0  0
    1.5253   -2.7015   -4.1921 H   0  0  0  0  0  0  0  0  0  0  0  0
    2.5037   -3.8880   -0.2048 H   0  0  0  0  0  0  0  0  0  0  0  0
    3.2064    5.7286   -2.7143 H   0  0  0  0  0  0  0  0  0  0  0  0
    2.3757   -4.3885   -2.5910 H   0  0  0  0  0  0  0  0  0  0  0  0
    2.7378   -3.1516    1.7780 H   0  0  0  0  0  0  0  0  0  0  0  0
    2.5920   -1.7278    2.7779 H   0  0  0  0  0  0  0  0  0  0  0  0
    2.0853    7.5777   -1.5248 H   0  0  0  0  0  0  0  0  0  0  0  0
    3.5670    0.5068    1.1267 H   0  0  0  0  0  0  0  0  0  0  0  0
    5.1321   -3.4901    1.5897 H   0  0  0  0  0  0  0  0  0  0  0  0
    5.8341    1.3185    0.5859 H   0  0  0  0  0  0  0  0  0  0  0  0
    7.3844   -2.6581    1.0368 H   0  0  0  0  0  0  0  0  0  0  0  0
    7.7471   -0.2589    0.5404 H   0  0  0  0  0  0  0  0  0  0  0  0
  1  2  1  0
  2  3  1  0
  1  4  1  0
  5  1  1  0
  4  6  2  0
  4  7  1  0
  8  5  1  0
  9  8  1  0
  8 10  1  0
  3 11  1  0
 11 12  2  0
 13 11  1  0
 12 14  1  0
 15 13  2  0
 13 16  1  0
 14 17  1  0
 14 15  1  0
 16 18  2  0
 19 16  1  0
 17 20  2  0
 21 17  1  0
 18 22  1  0
 23 19  2  0
 19 24  1  0
 20 25  1  0
 26 21  2  0
 22 27  2  0
 27 23  1  0
 24 28  1  0
 25 29  2  0
 29 26  1  0
 26 30  1  0
 28 31  1  0
 30 32  1  0
 30 33  2  0
 31 34  2  0
 35 31  1  0
 34 36  1  0
 37 35  2  0
 36 38  2  0
 38 37  1  0
  1 39  1  1
  2 40  1  0
  2 41  1  0
  3 42  1  0
  3 43  1  0
  5 44  1  0
  5 45  1  0
  8 46  1  0
  9 47  1  0
  9 48  1  0
  9 49  1  0
 10 50  1  0
 10 51  1  0
 10 52  1  0
 12 53  1  0
 18 54  1  0
 20 55  1  0
 21 56  1  0
 22 57  1  0
 23 58  1  0
 25 59  1  0
 27 60  1  0
 28 61  1  0
 28 62  1  0
 29 63  1  0
 34 64  1  0
 35 65  1  0
 36 66  1  0
 37 67  1  0
 38 68  1  0
M  CHG  4   2   1   7  -1  30   1  32  -1
M  END
>  <SMILES_raw>  (177) 
CC(C)C[C@@H](C(O)=O)NCC1=CN(C2=CC=CC([N+]([O-])=O)=C2)N=C1C3=CC=CC=C3OCC4=CC=CC=C4

>  <Protonation_Method>  (177) 
MolScrub

>  <Target_pH>  (177) 
7.4

$$$$
N-((3-(4-((4-chlorobenzyl)oxy)phenyl)-1-(3-nitrophenyl)-1H-pyrazol-4-yl)methyl)-L-valin
     RDKit          3D

 65 68  0  0  0  0  0  0  0  0999 V2000
   -3.5446   -2.2321    0.4974 C   0  0  2  0  0  0  0  0  0  0  0  0
   -2.0477   -1.9038    0.5767 N   0  0  0  0  0  0  0  0  0  0  0  0
   -1.6731   -0.8442    1.5311 C   0  0  0  0  0  0  0  0  0  0  0  0
   -3.8418   -3.3980    1.4975 C   0  0  0  0  0  0  0  0  0  0  0  0
   -3.9528   -2.6022   -0.9398 C   0  0  0  0  0  0  0  0  0  0  0  0
   -5.0324   -3.7077    1.6953 O   0  0  0  0  0  0  0  0  0  0  0  0
   -2.7327   -3.8239    1.9755 O   0  0  0  0  0  0  0  0  0  0  0  0
   -3.1409   -3.7576   -1.5365 C   0  0  0  0  0  0  0  0  0  0  0  0
   -3.8902   -1.3853   -1.8691 C   0  0  0  0  0  0  0  0  0  0  0  0
   -1.6770    0.4978    0.8969 C   0  0  0  0  0  0  0  0  0  0  0  0
   -2.7294    1.3834    0.7637 C   0  0  0  0  0  0  0  0  0  0  0  0
   -0.5808    1.1696    0.2960 C   0  0  0  0  0  0  0  0  0  0  0  0
   -2.2475    2.5077    0.1291 N   0  0  0  0  0  0  0  0  0  0  0  0
   -0.9318    2.3743   -0.1604 N   0  0  0  0  0  0  0  0  0  0  0  0
    0.7796    0.6775    0.1595 C   0  0  0  0  0  0  0  0  0  0  0  0
   -2.9517    3.6984   -0.2098 C   0  0  0  0  0  0  0  0  0  0  0  0
    1.7478    1.0256    1.1069 C   0  0  0  0  0  0  0  0  0  0  0  0
    1.1136   -0.1846   -0.8880 C   0  0  0  0  0  0  0  0  0  0  0  0
   -2.2590    4.7557   -0.8244 C   0  0  0  0  0  0  0  0  0  0  0  0
   -4.3189    3.8399    0.0650 C   0  0  0  0  0  0  0  0  0  0  0  0
    3.0394    0.4934    1.0247 C   0  0  0  0  0  0  0  0  0  0  0  0
    2.4017   -0.7190   -0.9608 C   0  0  0  0  0  0  0  0  0  0  0  0
   -2.9189    5.9414   -1.1591 C   0  0  0  0  0  0  0  0  0  0  0  0
   -4.9719    5.0377   -0.2745 C   0  0  0  0  0  0  0  0  0  0  0  0
    3.3675   -0.3907   -0.0041 C   0  0  0  0  0  0  0  0  0  0  0  0
   -4.2772    6.0892   -0.8834 C   0  0  0  0  0  0  0  0  0  0  0  0
   -6.4014    5.1914    0.0223 N   0  0  0  0  0  0  0  0  0  0  0  0
    4.5758   -1.0035   -0.1865 O   0  0  0  0  0  0  0  0  0  0  0  0
   -6.9098    6.3088   -0.1467 O   0  0  0  0  0  0  0  0  0  0  0  0
   -7.0134    4.1910    0.4236 O   0  0  0  0  0  0  0  0  0  0  0  0
    5.6384   -0.6274    0.6891 C   0  0  0  0  0  0  0  0  0  0  0  0
    6.8677   -1.4185    0.3126 C   0  0  0  0  0  0  0  0  0  0  0  0
    7.5175   -1.1780   -0.9083 C   0  0  0  0  0  0  0  0  0  0  0  0
    7.3741   -2.4064    1.1701 C   0  0  0  0  0  0  0  0  0  0  0  0
    8.6566   -1.9057   -1.2604 C   0  0  0  0  0  0  0  0  0  0  0  0
    8.5138   -3.1331    0.8180 C   0  0  0  0  0  0  0  0  0  0  0  0
    9.1502   -2.8785   -0.3945 C   0  0  0  0  0  0  0  0  0  0  0  0
   10.5564   -3.7732   -0.8259 Cl  0  0  0  0  0  0  0  0  0  0  0  0
   -4.0922   -1.3433    0.8306 H   0  0  0  0  0  0  0  0  0  0  0  0
   -1.5587   -1.8657   -0.3156 H   0  0  0  0  0  0  0  0  0  0  0  0
   -1.7368   -2.7927    1.0483 H   0  0  0  0  0  0  0  0  0  0  0  0
   -0.6718   -1.0989    1.8991 H   0  0  0  0  0  0  0  0  0  0  0  0
   -2.3569   -0.8885    2.3875 H   0  0  0  0  0  0  0  0  0  0  0  0
   -5.0016   -2.9309   -0.9133 H   0  0  0  0  0  0  0  0  0  0  0  0
   -3.5748   -4.0733   -2.4933 H   0  0  0  0  0  0  0  0  0  0  0  0
   -3.1419   -4.6305   -0.8756 H   0  0  0  0  0  0  0  0  0  0  0  0
   -2.1004   -3.4739   -1.7264 H   0  0  0  0  0  0  0  0  0  0  0  0
   -4.4896   -0.5595   -1.4697 H   0  0  0  0  0  0  0  0  0  0  0  0
   -4.2883   -1.6369   -2.8586 H   0  0  0  0  0  0  0  0  0  0  0  0
   -2.8648   -1.0237   -2.0044 H   0  0  0  0  0  0  0  0  0  0  0  0
   -3.7584    1.3014    1.0815 H   0  0  0  0  0  0  0  0  0  0  0  0
    1.5039    1.7140    1.9145 H   0  0  0  0  0  0  0  0  0  0  0  0
    0.3867   -0.4369   -1.6560 H   0  0  0  0  0  0  0  0  0  0  0  0
   -1.1947    4.6728   -1.0459 H   0  0  0  0  0  0  0  0  0  0  0  0
   -4.8919    3.0400    0.5284 H   0  0  0  0  0  0  0  0  0  0  0  0
    3.7591    0.7877    1.7809 H   0  0  0  0  0  0  0  0  0  0  0  0
    2.6633   -1.3937   -1.7740 H   0  0  0  0  0  0  0  0  0  0  0  0
   -2.3661    6.7534   -1.6288 H   0  0  0  0  0  0  0  0  0  0  0  0
   -4.7744    7.0201   -1.1466 H   0  0  0  0  0  0  0  0  0  0  0  0
    5.8617    0.4438    0.5864 H   0  0  0  0  0  0  0  0  0  0  0  0
    5.3684   -0.8409    1.7319 H   0  0  0  0  0  0  0  0  0  0  0  0
    7.1340   -0.4244   -1.5935 H   0  0  0  0  0  0  0  0  0  0  0  0
    6.8833   -2.6212    2.1169 H   0  0  0  0  0  0  0  0  0  0  0  0
    9.1498   -1.7117   -2.2089 H   0  0  0  0  0  0  0  0  0  0  0  0
    8.8980   -3.8963    1.4897 H   0  0  0  0  0  0  0  0  0  0  0  0
  1  2  1  0
  2  3  1  0
  1  4  1  0
  5  1  1  0
  4  6  2  0
  4  7  1  0
  8  5  1  0
  5  9  1  0
  3 10  1  0
 10 11  2  0
 12 10  1  0
 11 13  1  0
 14 12  2  0
 12 15  1  0
 13 16  1  0
 13 14  1  0
 15 17  2  0
 18 15  1  0
 16 19  2  0
 20 16  1  0
 17 21  1  0
 22 18  2  0
 19 23  1  0
 24 20  2  0
 21 25  2  0
 25 22  1  0
 23 26  2  0
 26 24  1  0
 24 27  1  0
 25 28  1  0
 27 29  1  0
 27 30  2  0
 28 31  1  0
 31 32  1  0
 32 33  2  0
 34 32  1  0
 33 35  1  0
 36 34  2  0
 35 37  2  0
 37 36  1  0
 37 38  1  0
  1 39  1  1
  2 40  1  0
  2 41  1  0
  3 42  1  0
  3 43  1  0
  5 44  1  0
  8 45  1  0
  8 46  1  0
  8 47  1  0
  9 48  1  0
  9 49  1  0
  9 50  1  0
 11 51  1  0
 17 52  1  0
 18 53  1  0
 19 54  1  0
 20 55  1  0
 21 56  1  0
 22 57  1  0
 23 58  1  0
 26 59  1  0
 31 60  1  0
 31 61  1  0
 33 62  1  0
 34 63  1  0
 35 64  1  0
 36 65  1  0
M  CHG  4   2   1   7  -1  27   1  29  -1
M  END
>  <SMILES_raw>  (178) 
CC(C)[C@@H](C(O)=O)NCC1=CN(C2=CC=CC([N+]([O-])=O)=C2)N=C1C3=CC=C(OCC4=CC=C(Cl)C=C4)C=C3

>  <Protonation_Method>  (178) 
MolScrub

>  <Target_pH>  (178) 
7.4

$$$$
N-((1-(4-bromophenyl)-3-(4-((4-chlorobenzyl)oxy)phenyl)-1H-pyrazol-4-yl)methyl)-L-leucin
     RDKit          3D

 66 69  0  0  0  0  0  0  0  0999 V2000
   -3.0464   -2.6390    0.3841 C   0  0  2  0  0  0  0  0  0  0  0  0
   -2.6016   -1.1863    0.6456 N   0  0  0  0  0  0  0  0  0  0  0  0
   -2.0085   -0.4666   -0.5150 C   0  0  0  0  0  0  0  0  0  0  0  0
   -1.7678   -3.5022    0.1259 C   0  0  0  0  0  0  0  0  0  0  0  0
   -4.1977   -2.6434   -0.6283 C   0  0  0  0  0  0  0  0  0  0  0  0
   -1.8309   -4.3997   -0.7388 O   0  0  0  0  0  0  0  0  0  0  0  0
   -0.7974   -3.0381    0.8094 O   0  0  0  0  0  0  0  0  0  0  0  0
   -5.3421   -3.6445   -0.3503 C   0  0  0  0  0  0  0  0  0  0  0  0
   -4.8780   -5.0975   -0.3023 C   0  0  0  0  0  0  0  0  0  0  0  0
   -6.1207   -3.2901    0.9177 C   0  0  0  0  0  0  0  0  0  0  0  0
   -1.7220    0.9431   -0.1389 C   0  0  0  0  0  0  0  0  0  0  0  0
   -2.6630    1.9292    0.1023 C   0  0  0  0  0  0  0  0  0  0  0  0
   -0.4679    1.6007    0.0279 C   0  0  0  0  0  0  0  0  0  0  0  0
   -1.9838    3.0884    0.3959 N   0  0  0  0  0  0  0  0  0  0  0  0
   -0.6508    2.8923    0.3377 N   0  0  0  0  0  0  0  0  0  0  0  0
    0.8943    1.0772   -0.1089 C   0  0  0  0  0  0  0  0  0  0  0  0
   -2.5233    4.3625    0.7315 C   0  0  0  0  0  0  0  0  0  0  0  0
    1.2643   -0.1686    0.4050 C   0  0  0  0  0  0  0  0  0  0  0  0
    1.8748    1.8541   -0.7463 C   0  0  0  0  0  0  0  0  0  0  0  0
   -1.6495    5.4262    1.0130 C   0  0  0  0  0  0  0  0  0  0  0  0
   -3.9083    4.5754    0.7942 C   0  0  0  0  0  0  0  0  0  0  0  0
    2.5792   -0.6284    0.2689 C   0  0  0  0  0  0  0  0  0  0  0  0
    3.1918    1.3945   -0.8764 C   0  0  0  0  0  0  0  0  0  0  0  0
   -2.1534    6.6831    1.3564 C   0  0  0  0  0  0  0  0  0  0  0  0
   -4.4076    5.8360    1.1379 C   0  0  0  0  0  0  0  0  0  0  0  0
    3.5502    0.1486   -0.3650 C   0  0  0  0  0  0  0  0  0  0  0  0
   -3.5296    6.8813    1.4182 C   0  0  0  0  0  0  0  0  0  0  0  0
    4.7937   -0.4152   -0.4087 O   0  0  0  0  0  0  0  0  0  0  0  0
   -4.2126    8.5775    1.8886 Br  0  0  0  0  0  0  0  0  0  0  0  0
    5.8342    0.3465   -1.0142 C   0  0  0  0  0  0  0  0  0  0  0  0
    7.1192   -0.4390   -0.9024 C   0  0  0  0  0  0  0  0  0  0  0  0
    8.1030   -0.0733    0.0280 C   0  0  0  0  0  0  0  0  0  0  0  0
    7.3319   -1.5655   -1.7120 C   0  0  0  0  0  0  0  0  0  0  0  0
    9.2853   -0.8098    0.1339 C   0  0  0  0  0  0  0  0  0  0  0  0
    8.5138   -2.3022   -1.6052 C   0  0  0  0  0  0  0  0  0  0  0  0
    9.4867   -1.9191   -0.6848 C   0  0  0  0  0  0  0  0  0  0  0  0
   10.9444   -2.8242   -0.5554 Cl  0  0  0  0  0  0  0  0  0  0  0  0
   -3.4100   -2.9590    1.3682 H   0  0  0  0  0  0  0  0  0  0  0  0
   -1.7874   -1.3655    1.2700 H   0  0  0  0  0  0  0  0  0  0  0  0
   -3.2953   -0.6487    1.1632 H   0  0  0  0  0  0  0  0  0  0  0  0
   -1.1208   -1.0060   -0.8527 H   0  0  0  0  0  0  0  0  0  0  0  0
   -2.7443   -0.4801   -1.3253 H   0  0  0  0  0  0  0  0  0  0  0  0
   -3.7985   -2.8474   -1.6301 H   0  0  0  0  0  0  0  0  0  0  0  0
   -4.6567   -1.6483   -0.6871 H   0  0  0  0  0  0  0  0  0  0  0  0
   -6.0440   -3.5571   -1.1909 H   0  0  0  0  0  0  0  0  0  0  0  0
   -5.7335   -5.7722   -0.1840 H   0  0  0  0  0  0  0  0  0  0  0  0
   -4.1957   -5.2815    0.5344 H   0  0  0  0  0  0  0  0  0  0  0  0
   -4.3715   -5.3706   -1.2345 H   0  0  0  0  0  0  0  0  0  0  0  0
   -7.0169   -3.9140    1.0038 H   0  0  0  0  0  0  0  0  0  0  0  0
   -5.5233   -3.4461    1.8206 H   0  0  0  0  0  0  0  0  0  0  0  0
   -6.4452   -2.2447    0.8991 H   0  0  0  0  0  0  0  0  0  0  0  0
   -3.7414    1.8937    0.0723 H   0  0  0  0  0  0  0  0  0  0  0  0
    0.5632   -0.8064    0.9359 H   0  0  0  0  0  0  0  0  0  0  0  0
    1.6186    2.8355   -1.1428 H   0  0  0  0  0  0  0  0  0  0  0  0
   -0.5691    5.2921    0.9729 H   0  0  0  0  0  0  0  0  0  0  0  0
   -4.6290    3.7919    0.5840 H   0  0  0  0  0  0  0  0  0  0  0  0
    2.8455   -1.6048    0.6715 H   0  0  0  0  0  0  0  0  0  0  0  0
    3.9065    2.0390   -1.3767 H   0  0  0  0  0  0  0  0  0  0  0  0
   -1.4639    7.4947    1.5750 H   0  0  0  0  0  0  0  0  0  0  0  0
   -5.4822    5.9929    1.1853 H   0  0  0  0  0  0  0  0  0  0  0  0
    5.9501    1.3128   -0.5078 H   0  0  0  0  0  0  0  0  0  0  0  0
    5.6171    0.5234   -2.0753 H   0  0  0  0  0  0  0  0  0  0  0  0
    7.9517    0.7830    0.6818 H   0  0  0  0  0  0  0  0  0  0  0  0
    6.5689   -1.8799   -2.4224 H   0  0  0  0  0  0  0  0  0  0  0  0
   10.0394   -0.5164    0.8589 H   0  0  0  0  0  0  0  0  0  0  0  0
    8.6642   -3.1743   -2.2361 H   0  0  0  0  0  0  0  0  0  0  0  0
  1  2  1  0
  2  3  1  0
  1  4  1  0
  5  1  1  0
  4  6  2  0
  4  7  1  0
  8  5  1  0
  9  8  1  0
  8 10  1  0
  3 11  1  0
 11 12  2  0
 13 11  1  0
 12 14  1  0
 15 13  2  0
 13 16  1  0
 14 17  1  0
 14 15  1  0
 16 18  2  0
 19 16  1  0
 17 20  2  0
 21 17  1  0
 18 22  1  0
 23 19  2  0
 20 24  1  0
 25 21  2  0
 22 26  2  0
 26 23  1  0
 24 27  2  0
 27 25  1  0
 26 28  1  0
 27 29  1  0
 28 30  1  0
 30 31  1  0
 31 32  2  0
 33 31  1  0
 32 34  1  0
 35 33  2  0
 34 36  2  0
 36 35  1  0
 36 37  1  0
  1 38  1  1
  2 39  1  0
  2 40  1  0
  3 41  1  0
  3 42  1  0
  5 43  1  0
  5 44  1  0
  8 45  1  0
  9 46  1  0
  9 47  1  0
  9 48  1  0
 10 49  1  0
 10 50  1  0
 10 51  1  0
 12 52  1  0
 18 53  1  0
 19 54  1  0
 20 55  1  0
 21 56  1  0
 22 57  1  0
 23 58  1  0
 24 59  1  0
 25 60  1  0
 30 61  1  0
 30 62  1  0
 32 63  1  0
 33 64  1  0
 34 65  1  0
 35 66  1  0
M  CHG  2   2   1   7  -1
M  END
>  <SMILES_raw>  (179) 
CC(C)C[C@@H](C(O)=O)NCC1=CN(C2=CC=C(Br)C=C2)N=C1C3=CC=C(OCC4=CC=C(Cl)C=C4)C=C3

>  <Protonation_Method>  (179) 
MolScrub

>  <Target_pH>  (179) 
7.4

$$$$
